
**** 01/10/18 16:45:18 ********* PSpice 9.0 (Nov 1998) ******** ID# 0 ********

 ** circuit file for profile: latchtest 


 ****     CIRCUIT DESCRIPTION


******************************************************************************




** WARNING: DO NOT EDIT OR DELETE THIS FILE

*Libraries: 
* Local Libraries :
.LIB "C:\Documents and Settings\vlsi5\OrCAD\PSPICE-LIB\UMC_018-TT.lib" 
* From [PSPICE NETLIST] section of pspice.ini file:

*Analysis directives: 
.TRAN  0 18ns 0 10p 
.PROBE 

*Netlist File: 
.INC "datapath-TEST.net" 


*Alias File: 

**** INCLUDING datapath-TEST.net ****
* source DATAPATH
V_V1         VDD 0 1.8V
V_V2         CLK 0  
+PULSE 0 1.8V 0.5n 50p 50p 1950p 4n
V_V3         A 0  
+PULSE 0V 1.8V 7.5n 50p 50p 15950p 32n
V_V5         B 0  
+PULSE 0V 1.8V 5n 50p 50p 15950p 32n
V_V6         C 0  
+PULSE 0 1.8V 9n 50p 50p 15950p 32n
V_V7         D 0  
+PULSE 1.8V 0V 3.5n 50p 50p 15950p 32n
V_V8         E 0  
+PULSE 0 1.8V 5n 50p 50p 4950p 10n
M_FINALDATA_REGISTER4_DFLIP_NOT1_M2         FINALDATA_REGISTER4_DFLIP_N00048
+  CLK 0 0 MbreakND  
+ L=180n  
+ W=240n    
+ PD=960n  
+ PS=960n     
M_FINALDATA_REGISTER4_DFLIP_NOT1_M1         FINALDATA_REGISTER4_DFLIP_N00048
+  CLK VDD VDD MbreakPD  
+ L=180n  
+ W=1200n    
+ PD=2880n  
+ PS=2880n     
M_FINALDATA_REGISTER4_DFLIP_LATCH_MUX_NOT1_M2        
+  FINALDATA_REGISTER4_DFLIP_LATCH_MUX_N00144 FINALDATA_REGISTER4_DFLIP_N00062 0
+  0 MbreakND  
+ L=180n  
+ W=240n    
+ PD=960n  
+ PS=960n     
M_FINALDATA_REGISTER4_DFLIP_LATCH_MUX_NOT1_M1        
+  FINALDATA_REGISTER4_DFLIP_LATCH_MUX_N00144 FINALDATA_REGISTER4_DFLIP_N00062
+  VDD VDD MbreakPD  
+ L=180n  
+ W=1200n    
+ PD=2880n  
+ PS=2880n     
M_FINALDATA_REGISTER4_DFLIP_LATCH_MUX_NOT0_M2        
+  FINALDATA_REGISTER4_DFLIP_LATCH_MUX_N00147 0 0 0 MbreakND  
+ L=180n  
+ W=240n    
+ PD=960n  
+ PS=960n     
M_FINALDATA_REGISTER4_DFLIP_LATCH_MUX_NOT0_M1        
+  FINALDATA_REGISTER4_DFLIP_LATCH_MUX_N00147 0 VDD VDD MbreakPD  
+ L=180n  
+ W=1200n    
+ PD=2880n  
+ PS=2880n     
M_FINALDATA_REGISTER4_DFLIP_LATCH_MUX_NOT2_M2        
+  FINALDATA_REGISTER4_DFLIP_LATCH_MUX_SBAR CLK 0 0 MbreakND  
+ L=180n  
+ W=240n    
+ PD=960n  
+ PS=960n     
M_FINALDATA_REGISTER4_DFLIP_LATCH_MUX_NOT2_M1        
+  FINALDATA_REGISTER4_DFLIP_LATCH_MUX_SBAR CLK VDD VDD MbreakPD  
+ L=180n  
+ W=1200n    
+ PD=2880n  
+ PS=2880n     
M_FINALDATA_REGISTER4_DFLIP_LATCH_MUX_NOT3_M2        
+  FINALDATA_REGISTER4_DFLIP_N00062 FINALDATA_REGISTER4_DFLIP_LATCH_MUX_N00150 0
+  0 MbreakND  
+ L=180n  
+ W=480n    
+ PD=1440n  
+ PS=1440n     
M_FINALDATA_REGISTER4_DFLIP_LATCH_MUX_NOT3_M1        
+  FINALDATA_REGISTER4_DFLIP_N00062 FINALDATA_REGISTER4_DFLIP_LATCH_MUX_N00150
+  VDD VDD MbreakPD  
+ L=180n  
+ W=2400n    
+ PD=5280n  
+ PS=5280n     
M_FINALDATA_REGISTER4_DFLIP_LATCH_MUX_PG1_M2        
+  FINALDATA_REGISTER4_DFLIP_LATCH_MUX_N00150
+  FINALDATA_REGISTER4_DFLIP_LATCH_MUX_SBAR
+  FINALDATA_REGISTER4_DFLIP_LATCH_MUX_N00144 VDD MbreakPD  
+ L=180n  
+ W=240n    
+ PD=960n  
+ PS=960n     
M_FINALDATA_REGISTER4_DFLIP_LATCH_MUX_PG1_M1        
+  FINALDATA_REGISTER4_DFLIP_LATCH_MUX_N00144 CLK
+  FINALDATA_REGISTER4_DFLIP_LATCH_MUX_N00150 0 MbreakND  
+ L=180n  
+ W=240n    
+ PD=960n  
+ PS=960n     
M_FINALDATA_REGISTER4_DFLIP_LATCH_MUX_PG0_M2        
+  FINALDATA_REGISTER4_DFLIP_LATCH_MUX_N00150 CLK
+  FINALDATA_REGISTER4_DFLIP_LATCH_MUX_N00147 VDD MbreakPD  
+ L=180n  
+ W=240n    
+ PD=960n  
+ PS=960n     
M_FINALDATA_REGISTER4_DFLIP_LATCH_MUX_PG0_M1        
+  FINALDATA_REGISTER4_DFLIP_LATCH_MUX_N00147
+  FINALDATA_REGISTER4_DFLIP_LATCH_MUX_SBAR
+  FINALDATA_REGISTER4_DFLIP_LATCH_MUX_N00150 0 MbreakND  
+ L=180n  
+ W=240n    
+ PD=960n  
+ PS=960n     
M_FINALDATA_REGISTER4_DFLIP_LATCH0_MUX_NOT1_M2        
+  FINALDATA_REGISTER4_DFLIP_LATCH0_MUX_N00144 FINALDATA_Q0 0 0 MbreakND  
+ L=180n  
+ W=240n    
+ PD=960n  
+ PS=960n     
M_FINALDATA_REGISTER4_DFLIP_LATCH0_MUX_NOT1_M1        
+  FINALDATA_REGISTER4_DFLIP_LATCH0_MUX_N00144 FINALDATA_Q0 VDD VDD MbreakPD  
+ L=180n  
+ W=1200n    
+ PD=2880n  
+ PS=2880n     
M_FINALDATA_REGISTER4_DFLIP_LATCH0_MUX_NOT0_M2        
+  FINALDATA_REGISTER4_DFLIP_LATCH0_MUX_N00147 FINALDATA_REGISTER4_DFLIP_N00062 0
+  0 MbreakND  
+ L=180n  
+ W=240n    
+ PD=960n  
+ PS=960n     
M_FINALDATA_REGISTER4_DFLIP_LATCH0_MUX_NOT0_M1        
+  FINALDATA_REGISTER4_DFLIP_LATCH0_MUX_N00147 FINALDATA_REGISTER4_DFLIP_N00062
+  VDD VDD MbreakPD  
+ L=180n  
+ W=1200n    
+ PD=2880n  
+ PS=2880n     
M_FINALDATA_REGISTER4_DFLIP_LATCH0_MUX_NOT2_M2        
+  FINALDATA_REGISTER4_DFLIP_LATCH0_MUX_SBAR FINALDATA_REGISTER4_DFLIP_N00048 0 0
+  MbreakND  
+ L=180n  
+ W=240n    
+ PD=960n  
+ PS=960n     
M_FINALDATA_REGISTER4_DFLIP_LATCH0_MUX_NOT2_M1        
+  FINALDATA_REGISTER4_DFLIP_LATCH0_MUX_SBAR FINALDATA_REGISTER4_DFLIP_N00048 VDD
+  VDD MbreakPD  
+ L=180n  
+ W=1200n    
+ PD=2880n  
+ PS=2880n     
M_FINALDATA_REGISTER4_DFLIP_LATCH0_MUX_NOT3_M2         FINALDATA_Q0
+  FINALDATA_REGISTER4_DFLIP_LATCH0_MUX_N00150 0 0 MbreakND  
+ L=180n  
+ W=480n    
+ PD=1440n  
+ PS=1440n     
M_FINALDATA_REGISTER4_DFLIP_LATCH0_MUX_NOT3_M1         FINALDATA_Q0
+  FINALDATA_REGISTER4_DFLIP_LATCH0_MUX_N00150 VDD VDD MbreakPD  
+ L=180n  
+ W=2400n    
+ PD=5280n  
+ PS=5280n     
M_FINALDATA_REGISTER4_DFLIP_LATCH0_MUX_PG1_M2        
+  FINALDATA_REGISTER4_DFLIP_LATCH0_MUX_N00150
+  FINALDATA_REGISTER4_DFLIP_LATCH0_MUX_SBAR
+  FINALDATA_REGISTER4_DFLIP_LATCH0_MUX_N00144 VDD MbreakPD  
+ L=180n  
+ W=240n    
+ PD=960n  
+ PS=960n     
M_FINALDATA_REGISTER4_DFLIP_LATCH0_MUX_PG1_M1        
+  FINALDATA_REGISTER4_DFLIP_LATCH0_MUX_N00144 FINALDATA_REGISTER4_DFLIP_N00048
+  FINALDATA_REGISTER4_DFLIP_LATCH0_MUX_N00150 0 MbreakND  
+ L=180n  
+ W=240n    
+ PD=960n  
+ PS=960n     
M_FINALDATA_REGISTER4_DFLIP_LATCH0_MUX_PG0_M2        
+  FINALDATA_REGISTER4_DFLIP_LATCH0_MUX_N00150 FINALDATA_REGISTER4_DFLIP_N00048
+  FINALDATA_REGISTER4_DFLIP_LATCH0_MUX_N00147 VDD MbreakPD  
+ L=180n  
+ W=240n    
+ PD=960n  
+ PS=960n     
M_FINALDATA_REGISTER4_DFLIP_LATCH0_MUX_PG0_M1        
+  FINALDATA_REGISTER4_DFLIP_LATCH0_MUX_N00147
+  FINALDATA_REGISTER4_DFLIP_LATCH0_MUX_SBAR
+  FINALDATA_REGISTER4_DFLIP_LATCH0_MUX_N00150 0 MbreakND  
+ L=180n  
+ W=240n    
+ PD=960n  
+ PS=960n     
M_FINALDATA_REGISTER4_DFLIP0_NOT1_M2         FINALDATA_REGISTER4_DFLIP0_N00048
+  CLK 0 0 MbreakND  
+ L=180n  
+ W=240n    
+ PD=960n  
+ PS=960n     
M_FINALDATA_REGISTER4_DFLIP0_NOT1_M1         FINALDATA_REGISTER4_DFLIP0_N00048
+  CLK VDD VDD MbreakPD  
+ L=180n  
+ W=1200n    
+ PD=2880n  
+ PS=2880n     
M_FINALDATA_REGISTER4_DFLIP0_LATCH_MUX_NOT1_M2        
+  FINALDATA_REGISTER4_DFLIP0_LATCH_MUX_N00144 FINALDATA_REGISTER4_DFLIP0_N00062
+  0 0 MbreakND  
+ L=180n  
+ W=240n    
+ PD=960n  
+ PS=960n     
M_FINALDATA_REGISTER4_DFLIP0_LATCH_MUX_NOT1_M1        
+  FINALDATA_REGISTER4_DFLIP0_LATCH_MUX_N00144 FINALDATA_REGISTER4_DFLIP0_N00062
+  VDD VDD MbreakPD  
+ L=180n  
+ W=1200n    
+ PD=2880n  
+ PS=2880n     
M_FINALDATA_REGISTER4_DFLIP0_LATCH_MUX_NOT0_M2        
+  FINALDATA_REGISTER4_DFLIP0_LATCH_MUX_N00147 D 0 0 MbreakND  
+ L=180n  
+ W=240n    
+ PD=960n  
+ PS=960n     
M_FINALDATA_REGISTER4_DFLIP0_LATCH_MUX_NOT0_M1        
+  FINALDATA_REGISTER4_DFLIP0_LATCH_MUX_N00147 D VDD VDD MbreakPD  
+ L=180n  
+ W=1200n    
+ PD=2880n  
+ PS=2880n     
M_FINALDATA_REGISTER4_DFLIP0_LATCH_MUX_NOT2_M2        
+  FINALDATA_REGISTER4_DFLIP0_LATCH_MUX_SBAR CLK 0 0 MbreakND  
+ L=180n  
+ W=240n    
+ PD=960n  
+ PS=960n     
M_FINALDATA_REGISTER4_DFLIP0_LATCH_MUX_NOT2_M1        
+  FINALDATA_REGISTER4_DFLIP0_LATCH_MUX_SBAR CLK VDD VDD MbreakPD  
+ L=180n  
+ W=1200n    
+ PD=2880n  
+ PS=2880n     
M_FINALDATA_REGISTER4_DFLIP0_LATCH_MUX_NOT3_M2        
+  FINALDATA_REGISTER4_DFLIP0_N00062 FINALDATA_REGISTER4_DFLIP0_LATCH_MUX_N00150
+  0 0 MbreakND  
+ L=180n  
+ W=480n    
+ PD=1440n  
+ PS=1440n     
M_FINALDATA_REGISTER4_DFLIP0_LATCH_MUX_NOT3_M1        
+  FINALDATA_REGISTER4_DFLIP0_N00062 FINALDATA_REGISTER4_DFLIP0_LATCH_MUX_N00150
+  VDD VDD MbreakPD  
+ L=180n  
+ W=2400n    
+ PD=5280n  
+ PS=5280n     
M_FINALDATA_REGISTER4_DFLIP0_LATCH_MUX_PG1_M2        
+  FINALDATA_REGISTER4_DFLIP0_LATCH_MUX_N00150
+  FINALDATA_REGISTER4_DFLIP0_LATCH_MUX_SBAR
+  FINALDATA_REGISTER4_DFLIP0_LATCH_MUX_N00144 VDD MbreakPD  
+ L=180n  
+ W=240n    
+ PD=960n  
+ PS=960n     
M_FINALDATA_REGISTER4_DFLIP0_LATCH_MUX_PG1_M1        
+  FINALDATA_REGISTER4_DFLIP0_LATCH_MUX_N00144 CLK
+  FINALDATA_REGISTER4_DFLIP0_LATCH_MUX_N00150 0 MbreakND  
+ L=180n  
+ W=240n    
+ PD=960n  
+ PS=960n     
M_FINALDATA_REGISTER4_DFLIP0_LATCH_MUX_PG0_M2        
+  FINALDATA_REGISTER4_DFLIP0_LATCH_MUX_N00150 CLK
+  FINALDATA_REGISTER4_DFLIP0_LATCH_MUX_N00147 VDD MbreakPD  
+ L=180n  
+ W=240n    
+ PD=960n  
+ PS=960n     
M_FINALDATA_REGISTER4_DFLIP0_LATCH_MUX_PG0_M1        
+  FINALDATA_REGISTER4_DFLIP0_LATCH_MUX_N00147
+  FINALDATA_REGISTER4_DFLIP0_LATCH_MUX_SBAR
+  FINALDATA_REGISTER4_DFLIP0_LATCH_MUX_N00150 0 MbreakND  
+ L=180n  
+ W=240n    
+ PD=960n  
+ PS=960n     
M_FINALDATA_REGISTER4_DFLIP0_LATCH0_MUX_NOT1_M2        
+  FINALDATA_REGISTER4_DFLIP0_LATCH0_MUX_N00144 FINALDATA_Q1 0 0 MbreakND  
+ L=180n  
+ W=240n    
+ PD=960n  
+ PS=960n     
M_FINALDATA_REGISTER4_DFLIP0_LATCH0_MUX_NOT1_M1        
+  FINALDATA_REGISTER4_DFLIP0_LATCH0_MUX_N00144 FINALDATA_Q1 VDD VDD MbreakPD  
+ L=180n  
+ W=1200n    
+ PD=2880n  
+ PS=2880n     
M_FINALDATA_REGISTER4_DFLIP0_LATCH0_MUX_NOT0_M2        
+  FINALDATA_REGISTER4_DFLIP0_LATCH0_MUX_N00147 FINALDATA_REGISTER4_DFLIP0_N00062
+  0 0 MbreakND  
+ L=180n  
+ W=240n    
+ PD=960n  
+ PS=960n     
M_FINALDATA_REGISTER4_DFLIP0_LATCH0_MUX_NOT0_M1        
+  FINALDATA_REGISTER4_DFLIP0_LATCH0_MUX_N00147 FINALDATA_REGISTER4_DFLIP0_N00062
+  VDD VDD MbreakPD  
+ L=180n  
+ W=1200n    
+ PD=2880n  
+ PS=2880n     
M_FINALDATA_REGISTER4_DFLIP0_LATCH0_MUX_NOT2_M2        
+  FINALDATA_REGISTER4_DFLIP0_LATCH0_MUX_SBAR FINALDATA_REGISTER4_DFLIP0_N00048 0
+  0 MbreakND  
+ L=180n  
+ W=240n    
+ PD=960n  
+ PS=960n     
M_FINALDATA_REGISTER4_DFLIP0_LATCH0_MUX_NOT2_M1        
+  FINALDATA_REGISTER4_DFLIP0_LATCH0_MUX_SBAR FINALDATA_REGISTER4_DFLIP0_N00048
+  VDD VDD MbreakPD  
+ L=180n  
+ W=1200n    
+ PD=2880n  
+ PS=2880n     
M_FINALDATA_REGISTER4_DFLIP0_LATCH0_MUX_NOT3_M2         FINALDATA_Q1
+  FINALDATA_REGISTER4_DFLIP0_LATCH0_MUX_N00150 0 0 MbreakND  
+ L=180n  
+ W=480n    
+ PD=1440n  
+ PS=1440n     
M_FINALDATA_REGISTER4_DFLIP0_LATCH0_MUX_NOT3_M1         FINALDATA_Q1
+  FINALDATA_REGISTER4_DFLIP0_LATCH0_MUX_N00150 VDD VDD MbreakPD  
+ L=180n  
+ W=2400n    
+ PD=5280n  
+ PS=5280n     
M_FINALDATA_REGISTER4_DFLIP0_LATCH0_MUX_PG1_M2        
+  FINALDATA_REGISTER4_DFLIP0_LATCH0_MUX_N00150
+  FINALDATA_REGISTER4_DFLIP0_LATCH0_MUX_SBAR
+  FINALDATA_REGISTER4_DFLIP0_LATCH0_MUX_N00144 VDD MbreakPD  
+ L=180n  
+ W=240n    
+ PD=960n  
+ PS=960n     
M_FINALDATA_REGISTER4_DFLIP0_LATCH0_MUX_PG1_M1        
+  FINALDATA_REGISTER4_DFLIP0_LATCH0_MUX_N00144 FINALDATA_REGISTER4_DFLIP0_N00048
+  FINALDATA_REGISTER4_DFLIP0_LATCH0_MUX_N00150 0 MbreakND  
+ L=180n  
+ W=240n    
+ PD=960n  
+ PS=960n     
M_FINALDATA_REGISTER4_DFLIP0_LATCH0_MUX_PG0_M2        
+  FINALDATA_REGISTER4_DFLIP0_LATCH0_MUX_N00150 FINALDATA_REGISTER4_DFLIP0_N00048
+  FINALDATA_REGISTER4_DFLIP0_LATCH0_MUX_N00147 VDD MbreakPD  
+ L=180n  
+ W=240n    
+ PD=960n  
+ PS=960n     
M_FINALDATA_REGISTER4_DFLIP0_LATCH0_MUX_PG0_M1        
+  FINALDATA_REGISTER4_DFLIP0_LATCH0_MUX_N00147
+  FINALDATA_REGISTER4_DFLIP0_LATCH0_MUX_SBAR
+  FINALDATA_REGISTER4_DFLIP0_LATCH0_MUX_N00150 0 MbreakND  
+ L=180n  
+ W=240n    
+ PD=960n  
+ PS=960n     
M_FINALDATA_REGISTER4_DFLIP1_NOT1_M2         FINALDATA_REGISTER4_DFLIP1_N00048
+  CLK 0 0 MbreakND  
+ L=180n  
+ W=240n    
+ PD=960n  
+ PS=960n     
M_FINALDATA_REGISTER4_DFLIP1_NOT1_M1         FINALDATA_REGISTER4_DFLIP1_N00048
+  CLK VDD VDD MbreakPD  
+ L=180n  
+ W=1200n    
+ PD=2880n  
+ PS=2880n     
M_FINALDATA_REGISTER4_DFLIP1_LATCH_MUX_NOT1_M2        
+  FINALDATA_REGISTER4_DFLIP1_LATCH_MUX_N00144 FINALDATA_REGISTER4_DFLIP1_N00062
+  0 0 MbreakND  
+ L=180n  
+ W=240n    
+ PD=960n  
+ PS=960n     
M_FINALDATA_REGISTER4_DFLIP1_LATCH_MUX_NOT1_M1        
+  FINALDATA_REGISTER4_DFLIP1_LATCH_MUX_N00144 FINALDATA_REGISTER4_DFLIP1_N00062
+  VDD VDD MbreakPD  
+ L=180n  
+ W=1200n    
+ PD=2880n  
+ PS=2880n     
M_FINALDATA_REGISTER4_DFLIP1_LATCH_MUX_NOT0_M2        
+  FINALDATA_REGISTER4_DFLIP1_LATCH_MUX_N00147 A 0 0 MbreakND  
+ L=180n  
+ W=240n    
+ PD=960n  
+ PS=960n     
M_FINALDATA_REGISTER4_DFLIP1_LATCH_MUX_NOT0_M1        
+  FINALDATA_REGISTER4_DFLIP1_LATCH_MUX_N00147 A VDD VDD MbreakPD  
+ L=180n  
+ W=1200n    
+ PD=2880n  
+ PS=2880n     
M_FINALDATA_REGISTER4_DFLIP1_LATCH_MUX_NOT2_M2        
+  FINALDATA_REGISTER4_DFLIP1_LATCH_MUX_SBAR CLK 0 0 MbreakND  
+ L=180n  
+ W=240n    
+ PD=960n  
+ PS=960n     
M_FINALDATA_REGISTER4_DFLIP1_LATCH_MUX_NOT2_M1        
+  FINALDATA_REGISTER4_DFLIP1_LATCH_MUX_SBAR CLK VDD VDD MbreakPD  
+ L=180n  
+ W=1200n    
+ PD=2880n  
+ PS=2880n     
M_FINALDATA_REGISTER4_DFLIP1_LATCH_MUX_NOT3_M2        
+  FINALDATA_REGISTER4_DFLIP1_N00062 FINALDATA_REGISTER4_DFLIP1_LATCH_MUX_N00150
+  0 0 MbreakND  
+ L=180n  
+ W=480n    
+ PD=1440n  
+ PS=1440n     
M_FINALDATA_REGISTER4_DFLIP1_LATCH_MUX_NOT3_M1        
+  FINALDATA_REGISTER4_DFLIP1_N00062 FINALDATA_REGISTER4_DFLIP1_LATCH_MUX_N00150
+  VDD VDD MbreakPD  
+ L=180n  
+ W=2400n    
+ PD=5280n  
+ PS=5280n     
M_FINALDATA_REGISTER4_DFLIP1_LATCH_MUX_PG1_M2        
+  FINALDATA_REGISTER4_DFLIP1_LATCH_MUX_N00150
+  FINALDATA_REGISTER4_DFLIP1_LATCH_MUX_SBAR
+  FINALDATA_REGISTER4_DFLIP1_LATCH_MUX_N00144 VDD MbreakPD  
+ L=180n  
+ W=240n    
+ PD=960n  
+ PS=960n     
M_FINALDATA_REGISTER4_DFLIP1_LATCH_MUX_PG1_M1        
+  FINALDATA_REGISTER4_DFLIP1_LATCH_MUX_N00144 CLK
+  FINALDATA_REGISTER4_DFLIP1_LATCH_MUX_N00150 0 MbreakND  
+ L=180n  
+ W=240n    
+ PD=960n  
+ PS=960n     
M_FINALDATA_REGISTER4_DFLIP1_LATCH_MUX_PG0_M2        
+  FINALDATA_REGISTER4_DFLIP1_LATCH_MUX_N00150 CLK
+  FINALDATA_REGISTER4_DFLIP1_LATCH_MUX_N00147 VDD MbreakPD  
+ L=180n  
+ W=240n    
+ PD=960n  
+ PS=960n     
M_FINALDATA_REGISTER4_DFLIP1_LATCH_MUX_PG0_M1        
+  FINALDATA_REGISTER4_DFLIP1_LATCH_MUX_N00147
+  FINALDATA_REGISTER4_DFLIP1_LATCH_MUX_SBAR
+  FINALDATA_REGISTER4_DFLIP1_LATCH_MUX_N00150 0 MbreakND  
+ L=180n  
+ W=240n    
+ PD=960n  
+ PS=960n     
M_FINALDATA_REGISTER4_DFLIP1_LATCH0_MUX_NOT1_M2        
+  FINALDATA_REGISTER4_DFLIP1_LATCH0_MUX_N00144 FINALDATA_Q2 0 0 MbreakND  
+ L=180n  
+ W=240n    
+ PD=960n  
+ PS=960n     
M_FINALDATA_REGISTER4_DFLIP1_LATCH0_MUX_NOT1_M1        
+  FINALDATA_REGISTER4_DFLIP1_LATCH0_MUX_N00144 FINALDATA_Q2 VDD VDD MbreakPD  
+ L=180n  
+ W=1200n    
+ PD=2880n  
+ PS=2880n     
M_FINALDATA_REGISTER4_DFLIP1_LATCH0_MUX_NOT0_M2        
+  FINALDATA_REGISTER4_DFLIP1_LATCH0_MUX_N00147 FINALDATA_REGISTER4_DFLIP1_N00062
+  0 0 MbreakND  
+ L=180n  
+ W=240n    
+ PD=960n  
+ PS=960n     
M_FINALDATA_REGISTER4_DFLIP1_LATCH0_MUX_NOT0_M1        
+  FINALDATA_REGISTER4_DFLIP1_LATCH0_MUX_N00147 FINALDATA_REGISTER4_DFLIP1_N00062
+  VDD VDD MbreakPD  
+ L=180n  
+ W=1200n    
+ PD=2880n  
+ PS=2880n     
M_FINALDATA_REGISTER4_DFLIP1_LATCH0_MUX_NOT2_M2        
+  FINALDATA_REGISTER4_DFLIP1_LATCH0_MUX_SBAR FINALDATA_REGISTER4_DFLIP1_N00048 0
+  0 MbreakND  
+ L=180n  
+ W=240n    
+ PD=960n  
+ PS=960n     
M_FINALDATA_REGISTER4_DFLIP1_LATCH0_MUX_NOT2_M1        
+  FINALDATA_REGISTER4_DFLIP1_LATCH0_MUX_SBAR FINALDATA_REGISTER4_DFLIP1_N00048
+  VDD VDD MbreakPD  
+ L=180n  
+ W=1200n    
+ PD=2880n  
+ PS=2880n     
M_FINALDATA_REGISTER4_DFLIP1_LATCH0_MUX_NOT3_M2         FINALDATA_Q2
+  FINALDATA_REGISTER4_DFLIP1_LATCH0_MUX_N00150 0 0 MbreakND  
+ L=180n  
+ W=480n    
+ PD=1440n  
+ PS=1440n     
M_FINALDATA_REGISTER4_DFLIP1_LATCH0_MUX_NOT3_M1         FINALDATA_Q2
+  FINALDATA_REGISTER4_DFLIP1_LATCH0_MUX_N00150 VDD VDD MbreakPD  
+ L=180n  
+ W=2400n    
+ PD=5280n  
+ PS=5280n     
M_FINALDATA_REGISTER4_DFLIP1_LATCH0_MUX_PG1_M2        
+  FINALDATA_REGISTER4_DFLIP1_LATCH0_MUX_N00150
+  FINALDATA_REGISTER4_DFLIP1_LATCH0_MUX_SBAR
+  FINALDATA_REGISTER4_DFLIP1_LATCH0_MUX_N00144 VDD MbreakPD  
+ L=180n  
+ W=240n    
+ PD=960n  
+ PS=960n     
M_FINALDATA_REGISTER4_DFLIP1_LATCH0_MUX_PG1_M1        
+  FINALDATA_REGISTER4_DFLIP1_LATCH0_MUX_N00144 FINALDATA_REGISTER4_DFLIP1_N00048
+  FINALDATA_REGISTER4_DFLIP1_LATCH0_MUX_N00150 0 MbreakND  
+ L=180n  
+ W=240n    
+ PD=960n  
+ PS=960n     
M_FINALDATA_REGISTER4_DFLIP1_LATCH0_MUX_PG0_M2        
+  FINALDATA_REGISTER4_DFLIP1_LATCH0_MUX_N00150 FINALDATA_REGISTER4_DFLIP1_N00048
+  FINALDATA_REGISTER4_DFLIP1_LATCH0_MUX_N00147 VDD MbreakPD  
+ L=180n  
+ W=240n    
+ PD=960n  
+ PS=960n     
M_FINALDATA_REGISTER4_DFLIP1_LATCH0_MUX_PG0_M1        
+  FINALDATA_REGISTER4_DFLIP1_LATCH0_MUX_N00147
+  FINALDATA_REGISTER4_DFLIP1_LATCH0_MUX_SBAR
+  FINALDATA_REGISTER4_DFLIP1_LATCH0_MUX_N00150 0 MbreakND  
+ L=180n  
+ W=240n    
+ PD=960n  
+ PS=960n     
M_FINALDATA_REGISTER4_DFLIP2_NOT1_M2         FINALDATA_REGISTER4_DFLIP2_N00048
+  CLK 0 0 MbreakND  
+ L=180n  
+ W=240n    
+ PD=960n  
+ PS=960n     
M_FINALDATA_REGISTER4_DFLIP2_NOT1_M1         FINALDATA_REGISTER4_DFLIP2_N00048
+  CLK VDD VDD MbreakPD  
+ L=180n  
+ W=1200n    
+ PD=2880n  
+ PS=2880n     
M_FINALDATA_REGISTER4_DFLIP2_LATCH_MUX_NOT1_M2        
+  FINALDATA_REGISTER4_DFLIP2_LATCH_MUX_N00144 FINALDATA_REGISTER4_DFLIP2_N00062
+  0 0 MbreakND  
+ L=180n  
+ W=240n    
+ PD=960n  
+ PS=960n     
M_FINALDATA_REGISTER4_DFLIP2_LATCH_MUX_NOT1_M1        
+  FINALDATA_REGISTER4_DFLIP2_LATCH_MUX_N00144 FINALDATA_REGISTER4_DFLIP2_N00062
+  VDD VDD MbreakPD  
+ L=180n  
+ W=1200n    
+ PD=2880n  
+ PS=2880n     
M_FINALDATA_REGISTER4_DFLIP2_LATCH_MUX_NOT0_M2        
+  FINALDATA_REGISTER4_DFLIP2_LATCH_MUX_N00147 0 0 0 MbreakND  
+ L=180n  
+ W=240n    
+ PD=960n  
+ PS=960n     
M_FINALDATA_REGISTER4_DFLIP2_LATCH_MUX_NOT0_M1        
+  FINALDATA_REGISTER4_DFLIP2_LATCH_MUX_N00147 0 VDD VDD MbreakPD  
+ L=180n  
+ W=1200n    
+ PD=2880n  
+ PS=2880n     
M_FINALDATA_REGISTER4_DFLIP2_LATCH_MUX_NOT2_M2        
+  FINALDATA_REGISTER4_DFLIP2_LATCH_MUX_SBAR CLK 0 0 MbreakND  
+ L=180n  
+ W=240n    
+ PD=960n  
+ PS=960n     
M_FINALDATA_REGISTER4_DFLIP2_LATCH_MUX_NOT2_M1        
+  FINALDATA_REGISTER4_DFLIP2_LATCH_MUX_SBAR CLK VDD VDD MbreakPD  
+ L=180n  
+ W=1200n    
+ PD=2880n  
+ PS=2880n     
M_FINALDATA_REGISTER4_DFLIP2_LATCH_MUX_NOT3_M2        
+  FINALDATA_REGISTER4_DFLIP2_N00062 FINALDATA_REGISTER4_DFLIP2_LATCH_MUX_N00150
+  0 0 MbreakND  
+ L=180n  
+ W=480n    
+ PD=1440n  
+ PS=1440n     
M_FINALDATA_REGISTER4_DFLIP2_LATCH_MUX_NOT3_M1        
+  FINALDATA_REGISTER4_DFLIP2_N00062 FINALDATA_REGISTER4_DFLIP2_LATCH_MUX_N00150
+  VDD VDD MbreakPD  
+ L=180n  
+ W=2400n    
+ PD=5280n  
+ PS=5280n     
M_FINALDATA_REGISTER4_DFLIP2_LATCH_MUX_PG1_M2        
+  FINALDATA_REGISTER4_DFLIP2_LATCH_MUX_N00150
+  FINALDATA_REGISTER4_DFLIP2_LATCH_MUX_SBAR
+  FINALDATA_REGISTER4_DFLIP2_LATCH_MUX_N00144 VDD MbreakPD  
+ L=180n  
+ W=240n    
+ PD=960n  
+ PS=960n     
M_FINALDATA_REGISTER4_DFLIP2_LATCH_MUX_PG1_M1        
+  FINALDATA_REGISTER4_DFLIP2_LATCH_MUX_N00144 CLK
+  FINALDATA_REGISTER4_DFLIP2_LATCH_MUX_N00150 0 MbreakND  
+ L=180n  
+ W=240n    
+ PD=960n  
+ PS=960n     
M_FINALDATA_REGISTER4_DFLIP2_LATCH_MUX_PG0_M2        
+  FINALDATA_REGISTER4_DFLIP2_LATCH_MUX_N00150 CLK
+  FINALDATA_REGISTER4_DFLIP2_LATCH_MUX_N00147 VDD MbreakPD  
+ L=180n  
+ W=240n    
+ PD=960n  
+ PS=960n     
M_FINALDATA_REGISTER4_DFLIP2_LATCH_MUX_PG0_M1        
+  FINALDATA_REGISTER4_DFLIP2_LATCH_MUX_N00147
+  FINALDATA_REGISTER4_DFLIP2_LATCH_MUX_SBAR
+  FINALDATA_REGISTER4_DFLIP2_LATCH_MUX_N00150 0 MbreakND  
+ L=180n  
+ W=240n    
+ PD=960n  
+ PS=960n     
M_FINALDATA_REGISTER4_DFLIP2_LATCH0_MUX_NOT1_M2        
+  FINALDATA_REGISTER4_DFLIP2_LATCH0_MUX_N00144 FINALDATA_Q3 0 0 MbreakND  
+ L=180n  
+ W=240n    
+ PD=960n  
+ PS=960n     
M_FINALDATA_REGISTER4_DFLIP2_LATCH0_MUX_NOT1_M1        
+  FINALDATA_REGISTER4_DFLIP2_LATCH0_MUX_N00144 FINALDATA_Q3 VDD VDD MbreakPD  
+ L=180n  
+ W=1200n    
+ PD=2880n  
+ PS=2880n     
M_FINALDATA_REGISTER4_DFLIP2_LATCH0_MUX_NOT0_M2        
+  FINALDATA_REGISTER4_DFLIP2_LATCH0_MUX_N00147 FINALDATA_REGISTER4_DFLIP2_N00062
+  0 0 MbreakND  
+ L=180n  
+ W=240n    
+ PD=960n  
+ PS=960n     
M_FINALDATA_REGISTER4_DFLIP2_LATCH0_MUX_NOT0_M1        
+  FINALDATA_REGISTER4_DFLIP2_LATCH0_MUX_N00147 FINALDATA_REGISTER4_DFLIP2_N00062
+  VDD VDD MbreakPD  
+ L=180n  
+ W=1200n    
+ PD=2880n  
+ PS=2880n     
M_FINALDATA_REGISTER4_DFLIP2_LATCH0_MUX_NOT2_M2        
+  FINALDATA_REGISTER4_DFLIP2_LATCH0_MUX_SBAR FINALDATA_REGISTER4_DFLIP2_N00048 0
+  0 MbreakND  
+ L=180n  
+ W=240n    
+ PD=960n  
+ PS=960n     
M_FINALDATA_REGISTER4_DFLIP2_LATCH0_MUX_NOT2_M1        
+  FINALDATA_REGISTER4_DFLIP2_LATCH0_MUX_SBAR FINALDATA_REGISTER4_DFLIP2_N00048
+  VDD VDD MbreakPD  
+ L=180n  
+ W=1200n    
+ PD=2880n  
+ PS=2880n     
M_FINALDATA_REGISTER4_DFLIP2_LATCH0_MUX_NOT3_M2         FINALDATA_Q3
+  FINALDATA_REGISTER4_DFLIP2_LATCH0_MUX_N00150 0 0 MbreakND  
+ L=180n  
+ W=480n    
+ PD=1440n  
+ PS=1440n     
M_FINALDATA_REGISTER4_DFLIP2_LATCH0_MUX_NOT3_M1         FINALDATA_Q3
+  FINALDATA_REGISTER4_DFLIP2_LATCH0_MUX_N00150 VDD VDD MbreakPD  
+ L=180n  
+ W=2400n    
+ PD=5280n  
+ PS=5280n     
M_FINALDATA_REGISTER4_DFLIP2_LATCH0_MUX_PG1_M2        
+  FINALDATA_REGISTER4_DFLIP2_LATCH0_MUX_N00150
+  FINALDATA_REGISTER4_DFLIP2_LATCH0_MUX_SBAR
+  FINALDATA_REGISTER4_DFLIP2_LATCH0_MUX_N00144 VDD MbreakPD  
+ L=180n  
+ W=240n    
+ PD=960n  
+ PS=960n     
M_FINALDATA_REGISTER4_DFLIP2_LATCH0_MUX_PG1_M1        
+  FINALDATA_REGISTER4_DFLIP2_LATCH0_MUX_N00144 FINALDATA_REGISTER4_DFLIP2_N00048
+  FINALDATA_REGISTER4_DFLIP2_LATCH0_MUX_N00150 0 MbreakND  
+ L=180n  
+ W=240n    
+ PD=960n  
+ PS=960n     
M_FINALDATA_REGISTER4_DFLIP2_LATCH0_MUX_PG0_M2        
+  FINALDATA_REGISTER4_DFLIP2_LATCH0_MUX_N00150 FINALDATA_REGISTER4_DFLIP2_N00048
+  FINALDATA_REGISTER4_DFLIP2_LATCH0_MUX_N00147 VDD MbreakPD  
+ L=180n  
+ W=240n    
+ PD=960n  
+ PS=960n     
M_FINALDATA_REGISTER4_DFLIP2_LATCH0_MUX_PG0_M1        
+  FINALDATA_REGISTER4_DFLIP2_LATCH0_MUX_N00147
+  FINALDATA_REGISTER4_DFLIP2_LATCH0_MUX_SBAR
+  FINALDATA_REGISTER4_DFLIP2_LATCH0_MUX_N00150 0 MbreakND  
+ L=180n  
+ W=240n    
+ PD=960n  
+ PS=960n     
M_FINALDATA_RCA4BIT_FADDER_Mx101         FINALDATA_RCA4BIT_N00011 C
+  FINALDATA_RCA4BIT_FADDER_N00178 VDD MbreakPD  
+ L=180n  
+ W=2400n    
+ PD=5280n  
+ PS=5280n     
M_FINALDATA_RCA4BIT_FADDER_Mx105         FINALDATA_RCA4BIT_N00011 FINALDATA_Q0
+  FINALDATA_RCA4BIT_FADDER_N00146 VDD MbreakPD  
+ L=180n  
+ W=2400n    
+ PD=5280n  
+ PS=5280n     
M_FINALDATA_RCA4BIT_FADDER_Mx102         FINALDATA_RCA4BIT_FADDER_N00178
+  FINALDATA_Q0 VDD VDD MbreakPD  
+ L=180n  
+ W=2400n    
+ PD=5280n  
+ PS=5280n     
M_FINALDATA_RCA4BIT_FADDER_M7         FINALDATA_RCA4BIT_N00014
+  FINALDATA_RCA4BIT_N00011 FINALDATA_RCA4BIT_FADDER_N00414 0 MbreakND  
+ L=180n  
+ W=480n    
+ PD=1440n  
+ PS=1440n     
M_FINALDATA_RCA4BIT_FADDER_Mx104         FINALDATA_RCA4BIT_FADDER_N00146
+  FINALDATA_RCA4BIT_N00254 VDD VDD MbreakPD  
+ L=180n  
+ W=2400n    
+ PD=5280n  
+ PS=5280n     
M_FINALDATA_RCA4BIT_FADDER_Mx103         FINALDATA_RCA4BIT_FADDER_N00178
+  FINALDATA_RCA4BIT_N00254 VDD VDD MbreakPD  
+ L=180n  
+ W=2400n    
+ PD=5280n  
+ PS=5280n     
M_FINALDATA_RCA4BIT_FADDER_M5         FINALDATA_RCA4BIT_N00011 FINALDATA_Q0
+  FINALDATA_RCA4BIT_FADDER_N00153 0 MbreakND  
+ L=180n  
+ W=480n    
+ PD=1440n  
+ PS=1440n     
M_FINALDATA_RCA4BIT_FADDER_M3         FINALDATA_RCA4BIT_N00011 C
+  FINALDATA_RCA4BIT_FADDER_N00202 0 MbreakND  
+ L=180n  
+ W=480n    
+ PD=1440n  
+ PS=1440n     
M_FINALDATA_RCA4BIT_FADDER_M2         FINALDATA_RCA4BIT_FADDER_N00202
+  FINALDATA_Q0 0 0 MbreakND  
+ L=180n  
+ W=480n    
+ PD=1440n  
+ PS=1440n     
M_FINALDATA_RCA4BIT_FADDER_M6         FINALDATA_RCA4BIT_FADDER_N00153
+  FINALDATA_RCA4BIT_N00254 0 0 MbreakND  
+ L=180n  
+ W=480n    
+ PD=1440n  
+ PS=1440n     
M_FINALDATA_RCA4BIT_FADDER_M4         FINALDATA_RCA4BIT_FADDER_N00202
+  FINALDATA_RCA4BIT_N00254 0 0 MbreakND  
+ L=180n  
+ W=480n    
+ PD=1440n  
+ PS=1440n     
M_FINALDATA_RCA4BIT_FADDER_M8         FINALDATA_RCA4BIT_FADDER_N00414
+  FINALDATA_RCA4BIT_N00254 0 0 MbreakND  
+ L=180n  
+ W=480n    
+ PD=1440n  
+ PS=1440n     
M_FINALDATA_RCA4BIT_FADDER_M9         FINALDATA_RCA4BIT_FADDER_N00414 C 0 0
+  MbreakND  
+ L=180n  
+ W=480n    
+ PD=1440n  
+ PS=1440n     
M_FINALDATA_RCA4BIT_FADDER_Mx32         FINALDATA_RCA4BIT_FADDER_N00361
+  FINALDATA_RCA4BIT_N00254 0 0 MbreakND  
+ L=180n  
+ W=720n    
+ PD=1920n  
+ PS=1920n     
M_FINALDATA_RCA4BIT_FADDER_Mx31         FINALDATA_RCA4BIT_FADDER_N00358
+  FINALDATA_Q0 FINALDATA_RCA4BIT_FADDER_N00361 0 MbreakND  
+ L=180n  
+ W=720n    
+ PD=1920n  
+ PS=1920n     
M_FINALDATA_RCA4BIT_FADDER_Mx151         FINALDATA_RCA4BIT_FADDER_N00347
+  FINALDATA_Q0 FINALDATA_RCA4BIT_FADDER_N00344 VDD MbreakPD  
+ L=180n  
+ W=3600n    
+ PD=7680n  
+ PS=7680n     
M_FINALDATA_RCA4BIT_FADDER_Mx152         FINALDATA_RCA4BIT_N00014 C
+  FINALDATA_RCA4BIT_FADDER_N00347 VDD MbreakPD  
+ L=180n  
+ W=3600n    
+ PD=7680n  
+ PS=7680n     
M_FINALDATA_RCA4BIT_FADDER_Mx107         FINALDATA_RCA4BIT_FADDER_N00292
+  FINALDATA_RCA4BIT_N00254 VDD VDD MbreakPD  
+ L=180n  
+ W=2400n    
+ PD=5280n  
+ PS=5280n     
M_FINALDATA_RCA4BIT_FADDER_M10         FINALDATA_RCA4BIT_FADDER_N00414
+  FINALDATA_Q0 0 0 MbreakND  
+ L=180n  
+ W=480n    
+ PD=1440n  
+ PS=1440n     
M_FINALDATA_RCA4BIT_FADDER_Mx106         FINALDATA_RCA4BIT_FADDER_N00292
+  FINALDATA_Q0 VDD VDD MbreakPD  
+ L=180n  
+ W=2400n    
+ PD=5280n  
+ PS=5280n     
M_FINALDATA_RCA4BIT_FADDER_Mx109         FINALDATA_RCA4BIT_FADDER_N00292 C VDD
+  VDD MbreakPD  
+ L=180n  
+ W=2400n    
+ PD=5280n  
+ PS=5280n     
M_FINALDATA_RCA4BIT_FADDER_Mx108         FINALDATA_RCA4BIT_N00014
+  FINALDATA_RCA4BIT_N00011 FINALDATA_RCA4BIT_FADDER_N00292 VDD MbreakPD  
+ L=180n  
+ W=2400n    
+ PD=5280n  
+ PS=5280n     
M_FINALDATA_RCA4BIT_FADDER_Mx33         FINALDATA_RCA4BIT_N00014 C
+  FINALDATA_RCA4BIT_FADDER_N00358 0 MbreakND  
+ L=180n  
+ W=720n    
+ PD=1920n  
+ PS=1920n     
M_FINALDATA_RCA4BIT_FADDER_Mx153         FINALDATA_RCA4BIT_FADDER_N00344
+  FINALDATA_RCA4BIT_N00254 VDD VDD MbreakPD  
+ L=180n  
+ W=3600n    
+ PD=7680n  
+ PS=7680n     
M_FINALDATA_RCA4BIT_FADDER0_Mx101         FINALDATA_RCA4BIT_N00065
+  FINALDATA_RCA4BIT_N00011 FINALDATA_RCA4BIT_FADDER0_N00178 VDD MbreakPD  
+ L=180n  
+ W=2400n    
+ PD=5280n  
+ PS=5280n     
M_FINALDATA_RCA4BIT_FADDER0_Mx105         FINALDATA_RCA4BIT_N00065
+  FINALDATA_RCA4BIT_N01597 FINALDATA_RCA4BIT_FADDER0_N00146 VDD MbreakPD  
+ L=180n  
+ W=2400n    
+ PD=5280n  
+ PS=5280n     
M_FINALDATA_RCA4BIT_FADDER0_Mx102         FINALDATA_RCA4BIT_FADDER0_N00178
+  FINALDATA_RCA4BIT_N01597 VDD VDD MbreakPD  
+ L=180n  
+ W=2400n    
+ PD=5280n  
+ PS=5280n     
M_FINALDATA_RCA4BIT_FADDER0_M7         FINALDATA_S1 FINALDATA_RCA4BIT_N00065
+  FINALDATA_RCA4BIT_FADDER0_N00414 0 MbreakND  
+ L=180n  
+ W=480n    
+ PD=1440n  
+ PS=1440n     
M_FINALDATA_RCA4BIT_FADDER0_Mx104         FINALDATA_RCA4BIT_FADDER0_N00146
+  FINALDATA_RCA4BIT_N01487 VDD VDD MbreakPD  
+ L=180n  
+ W=2400n    
+ PD=5280n  
+ PS=5280n     
M_FINALDATA_RCA4BIT_FADDER0_Mx103         FINALDATA_RCA4BIT_FADDER0_N00178
+  FINALDATA_RCA4BIT_N01487 VDD VDD MbreakPD  
+ L=180n  
+ W=2400n    
+ PD=5280n  
+ PS=5280n     
M_FINALDATA_RCA4BIT_FADDER0_M5         FINALDATA_RCA4BIT_N00065
+  FINALDATA_RCA4BIT_N01597 FINALDATA_RCA4BIT_FADDER0_N00153 0 MbreakND  
+ L=180n  
+ W=480n    
+ PD=1440n  
+ PS=1440n     
M_FINALDATA_RCA4BIT_FADDER0_M3         FINALDATA_RCA4BIT_N00065
+  FINALDATA_RCA4BIT_N00011 FINALDATA_RCA4BIT_FADDER0_N00202 0 MbreakND  
+ L=180n  
+ W=480n    
+ PD=1440n  
+ PS=1440n     
M_FINALDATA_RCA4BIT_FADDER0_M2         FINALDATA_RCA4BIT_FADDER0_N00202
+  FINALDATA_RCA4BIT_N01597 0 0 MbreakND  
+ L=180n  
+ W=480n    
+ PD=1440n  
+ PS=1440n     
M_FINALDATA_RCA4BIT_FADDER0_M6         FINALDATA_RCA4BIT_FADDER0_N00153
+  FINALDATA_RCA4BIT_N01487 0 0 MbreakND  
+ L=180n  
+ W=480n    
+ PD=1440n  
+ PS=1440n     
M_FINALDATA_RCA4BIT_FADDER0_M4         FINALDATA_RCA4BIT_FADDER0_N00202
+  FINALDATA_RCA4BIT_N01487 0 0 MbreakND  
+ L=180n  
+ W=480n    
+ PD=1440n  
+ PS=1440n     
M_FINALDATA_RCA4BIT_FADDER0_M8         FINALDATA_RCA4BIT_FADDER0_N00414
+  FINALDATA_RCA4BIT_N01487 0 0 MbreakND  
+ L=180n  
+ W=480n    
+ PD=1440n  
+ PS=1440n     
M_FINALDATA_RCA4BIT_FADDER0_M9         FINALDATA_RCA4BIT_FADDER0_N00414
+  FINALDATA_RCA4BIT_N00011 0 0 MbreakND  
+ L=180n  
+ W=480n    
+ PD=1440n  
+ PS=1440n     
M_FINALDATA_RCA4BIT_FADDER0_Mx32         FINALDATA_RCA4BIT_FADDER0_N00361
+  FINALDATA_RCA4BIT_N01487 0 0 MbreakND  
+ L=180n  
+ W=720n    
+ PD=1920n  
+ PS=1920n     
M_FINALDATA_RCA4BIT_FADDER0_Mx31         FINALDATA_RCA4BIT_FADDER0_N00358
+  FINALDATA_RCA4BIT_N01597 FINALDATA_RCA4BIT_FADDER0_N00361 0 MbreakND  
+ L=180n  
+ W=720n    
+ PD=1920n  
+ PS=1920n     
M_FINALDATA_RCA4BIT_FADDER0_Mx151         FINALDATA_RCA4BIT_FADDER0_N00347
+  FINALDATA_RCA4BIT_N01597 FINALDATA_RCA4BIT_FADDER0_N00344 VDD MbreakPD  
+ L=180n  
+ W=3600n    
+ PD=7680n  
+ PS=7680n     
M_FINALDATA_RCA4BIT_FADDER0_Mx152         FINALDATA_S1 FINALDATA_RCA4BIT_N00011
+  FINALDATA_RCA4BIT_FADDER0_N00347 VDD MbreakPD  
+ L=180n  
+ W=3600n    
+ PD=7680n  
+ PS=7680n     
M_FINALDATA_RCA4BIT_FADDER0_Mx107         FINALDATA_RCA4BIT_FADDER0_N00292
+  FINALDATA_RCA4BIT_N01487 VDD VDD MbreakPD  
+ L=180n  
+ W=2400n    
+ PD=5280n  
+ PS=5280n     
M_FINALDATA_RCA4BIT_FADDER0_M10         FINALDATA_RCA4BIT_FADDER0_N00414
+  FINALDATA_RCA4BIT_N01597 0 0 MbreakND  
+ L=180n  
+ W=480n    
+ PD=1440n  
+ PS=1440n     
M_FINALDATA_RCA4BIT_FADDER0_Mx106         FINALDATA_RCA4BIT_FADDER0_N00292
+  FINALDATA_RCA4BIT_N01597 VDD VDD MbreakPD  
+ L=180n  
+ W=2400n    
+ PD=5280n  
+ PS=5280n     
M_FINALDATA_RCA4BIT_FADDER0_Mx109         FINALDATA_RCA4BIT_FADDER0_N00292
+  FINALDATA_RCA4BIT_N00011 VDD VDD MbreakPD  
+ L=180n  
+ W=2400n    
+ PD=5280n  
+ PS=5280n     
M_FINALDATA_RCA4BIT_FADDER0_Mx108         FINALDATA_S1 FINALDATA_RCA4BIT_N00065
+  FINALDATA_RCA4BIT_FADDER0_N00292 VDD MbreakPD  
+ L=180n  
+ W=2400n    
+ PD=5280n  
+ PS=5280n     
M_FINALDATA_RCA4BIT_FADDER0_Mx33         FINALDATA_S1 FINALDATA_RCA4BIT_N00011
+  FINALDATA_RCA4BIT_FADDER0_N00358 0 MbreakND  
+ L=180n  
+ W=720n    
+ PD=1920n  
+ PS=1920n     
M_FINALDATA_RCA4BIT_FADDER0_Mx153         FINALDATA_RCA4BIT_FADDER0_N00344
+  FINALDATA_RCA4BIT_N01487 VDD VDD MbreakPD  
+ L=180n  
+ W=3600n    
+ PD=7680n  
+ PS=7680n     
M_FINALDATA_RCA4BIT_FADDER1_Mx101         FINALDATA_RCA4BIT_N00110
+  FINALDATA_RCA4BIT_N00065 FINALDATA_RCA4BIT_FADDER1_N00178 VDD MbreakPD  
+ L=180n  
+ W=2400n    
+ PD=5280n  
+ PS=5280n     
M_FINALDATA_RCA4BIT_FADDER1_Mx105         FINALDATA_RCA4BIT_N00110 FINALDATA_Q2
+  FINALDATA_RCA4BIT_FADDER1_N00146 VDD MbreakPD  
+ L=180n  
+ W=2400n    
+ PD=5280n  
+ PS=5280n     
M_FINALDATA_RCA4BIT_FADDER1_Mx102         FINALDATA_RCA4BIT_FADDER1_N00178
+  FINALDATA_Q2 VDD VDD MbreakPD  
+ L=180n  
+ W=2400n    
+ PD=5280n  
+ PS=5280n     
M_FINALDATA_RCA4BIT_FADDER1_M7         FINALDATA_RCA4BIT_N00106
+  FINALDATA_RCA4BIT_N00110 FINALDATA_RCA4BIT_FADDER1_N00414 0 MbreakND  
+ L=180n  
+ W=480n    
+ PD=1440n  
+ PS=1440n     
M_FINALDATA_RCA4BIT_FADDER1_Mx104         FINALDATA_RCA4BIT_FADDER1_N00146
+  FINALDATA_RCA4BIT_N00318 VDD VDD MbreakPD  
+ L=180n  
+ W=2400n    
+ PD=5280n  
+ PS=5280n     
M_FINALDATA_RCA4BIT_FADDER1_Mx103         FINALDATA_RCA4BIT_FADDER1_N00178
+  FINALDATA_RCA4BIT_N00318 VDD VDD MbreakPD  
+ L=180n  
+ W=2400n    
+ PD=5280n  
+ PS=5280n     
M_FINALDATA_RCA4BIT_FADDER1_M5         FINALDATA_RCA4BIT_N00110 FINALDATA_Q2
+  FINALDATA_RCA4BIT_FADDER1_N00153 0 MbreakND  
+ L=180n  
+ W=480n    
+ PD=1440n  
+ PS=1440n     
M_FINALDATA_RCA4BIT_FADDER1_M3         FINALDATA_RCA4BIT_N00110
+  FINALDATA_RCA4BIT_N00065 FINALDATA_RCA4BIT_FADDER1_N00202 0 MbreakND  
+ L=180n  
+ W=480n    
+ PD=1440n  
+ PS=1440n     
M_FINALDATA_RCA4BIT_FADDER1_M2         FINALDATA_RCA4BIT_FADDER1_N00202
+  FINALDATA_Q2 0 0 MbreakND  
+ L=180n  
+ W=480n    
+ PD=1440n  
+ PS=1440n     
M_FINALDATA_RCA4BIT_FADDER1_M6         FINALDATA_RCA4BIT_FADDER1_N00153
+  FINALDATA_RCA4BIT_N00318 0 0 MbreakND  
+ L=180n  
+ W=480n    
+ PD=1440n  
+ PS=1440n     
M_FINALDATA_RCA4BIT_FADDER1_M4         FINALDATA_RCA4BIT_FADDER1_N00202
+  FINALDATA_RCA4BIT_N00318 0 0 MbreakND  
+ L=180n  
+ W=480n    
+ PD=1440n  
+ PS=1440n     
M_FINALDATA_RCA4BIT_FADDER1_M8         FINALDATA_RCA4BIT_FADDER1_N00414
+  FINALDATA_RCA4BIT_N00318 0 0 MbreakND  
+ L=180n  
+ W=480n    
+ PD=1440n  
+ PS=1440n     
M_FINALDATA_RCA4BIT_FADDER1_M9         FINALDATA_RCA4BIT_FADDER1_N00414
+  FINALDATA_RCA4BIT_N00065 0 0 MbreakND  
+ L=180n  
+ W=480n    
+ PD=1440n  
+ PS=1440n     
M_FINALDATA_RCA4BIT_FADDER1_Mx32         FINALDATA_RCA4BIT_FADDER1_N00361
+  FINALDATA_RCA4BIT_N00318 0 0 MbreakND  
+ L=180n  
+ W=720n    
+ PD=1920n  
+ PS=1920n     
M_FINALDATA_RCA4BIT_FADDER1_Mx31         FINALDATA_RCA4BIT_FADDER1_N00358
+  FINALDATA_Q2 FINALDATA_RCA4BIT_FADDER1_N00361 0 MbreakND  
+ L=180n  
+ W=720n    
+ PD=1920n  
+ PS=1920n     
M_FINALDATA_RCA4BIT_FADDER1_Mx151         FINALDATA_RCA4BIT_FADDER1_N00347
+  FINALDATA_Q2 FINALDATA_RCA4BIT_FADDER1_N00344 VDD MbreakPD  
+ L=180n  
+ W=3600n    
+ PD=7680n  
+ PS=7680n     
M_FINALDATA_RCA4BIT_FADDER1_Mx152         FINALDATA_RCA4BIT_N00106
+  FINALDATA_RCA4BIT_N00065 FINALDATA_RCA4BIT_FADDER1_N00347 VDD MbreakPD  
+ L=180n  
+ W=3600n    
+ PD=7680n  
+ PS=7680n     
M_FINALDATA_RCA4BIT_FADDER1_Mx107         FINALDATA_RCA4BIT_FADDER1_N00292
+  FINALDATA_RCA4BIT_N00318 VDD VDD MbreakPD  
+ L=180n  
+ W=2400n    
+ PD=5280n  
+ PS=5280n     
M_FINALDATA_RCA4BIT_FADDER1_M10         FINALDATA_RCA4BIT_FADDER1_N00414
+  FINALDATA_Q2 0 0 MbreakND  
+ L=180n  
+ W=480n    
+ PD=1440n  
+ PS=1440n     
M_FINALDATA_RCA4BIT_FADDER1_Mx106         FINALDATA_RCA4BIT_FADDER1_N00292
+  FINALDATA_Q2 VDD VDD MbreakPD  
+ L=180n  
+ W=2400n    
+ PD=5280n  
+ PS=5280n     
M_FINALDATA_RCA4BIT_FADDER1_Mx109         FINALDATA_RCA4BIT_FADDER1_N00292
+  FINALDATA_RCA4BIT_N00065 VDD VDD MbreakPD  
+ L=180n  
+ W=2400n    
+ PD=5280n  
+ PS=5280n     
M_FINALDATA_RCA4BIT_FADDER1_Mx108         FINALDATA_RCA4BIT_N00106
+  FINALDATA_RCA4BIT_N00110 FINALDATA_RCA4BIT_FADDER1_N00292 VDD MbreakPD  
+ L=180n  
+ W=2400n    
+ PD=5280n  
+ PS=5280n     
M_FINALDATA_RCA4BIT_FADDER1_Mx33         FINALDATA_RCA4BIT_N00106
+  FINALDATA_RCA4BIT_N00065 FINALDATA_RCA4BIT_FADDER1_N00358 0 MbreakND  
+ L=180n  
+ W=720n    
+ PD=1920n  
+ PS=1920n     
M_FINALDATA_RCA4BIT_FADDER1_Mx153         FINALDATA_RCA4BIT_FADDER1_N00344
+  FINALDATA_RCA4BIT_N00318 VDD VDD MbreakPD  
+ L=180n  
+ W=3600n    
+ PD=7680n  
+ PS=7680n     
M_FINALDATA_RCA4BIT_FADDER2_Mx101         FINALDATA_N00643
+  FINALDATA_RCA4BIT_N00110 FINALDATA_RCA4BIT_FADDER2_N00178 VDD MbreakPD  
+ L=180n  
+ W=2400n    
+ PD=5280n  
+ PS=5280n     
M_FINALDATA_RCA4BIT_FADDER2_Mx105         FINALDATA_N00643
+  FINALDATA_RCA4BIT_N01475 FINALDATA_RCA4BIT_FADDER2_N00146 VDD MbreakPD  
+ L=180n  
+ W=2400n    
+ PD=5280n  
+ PS=5280n     
M_FINALDATA_RCA4BIT_FADDER2_Mx102         FINALDATA_RCA4BIT_FADDER2_N00178
+  FINALDATA_RCA4BIT_N01475 VDD VDD MbreakPD  
+ L=180n  
+ W=2400n    
+ PD=5280n  
+ PS=5280n     
M_FINALDATA_RCA4BIT_FADDER2_M7         FINALDATA_S3 FINALDATA_N00643
+  FINALDATA_RCA4BIT_FADDER2_N00414 0 MbreakND  
+ L=180n  
+ W=480n    
+ PD=1440n  
+ PS=1440n     
M_FINALDATA_RCA4BIT_FADDER2_Mx104         FINALDATA_RCA4BIT_FADDER2_N00146
+  FINALDATA_RCA4BIT_N01385 VDD VDD MbreakPD  
+ L=180n  
+ W=2400n    
+ PD=5280n  
+ PS=5280n     
M_FINALDATA_RCA4BIT_FADDER2_Mx103         FINALDATA_RCA4BIT_FADDER2_N00178
+  FINALDATA_RCA4BIT_N01385 VDD VDD MbreakPD  
+ L=180n  
+ W=2400n    
+ PD=5280n  
+ PS=5280n     
M_FINALDATA_RCA4BIT_FADDER2_M5         FINALDATA_N00643
+  FINALDATA_RCA4BIT_N01475 FINALDATA_RCA4BIT_FADDER2_N00153 0 MbreakND  
+ L=180n  
+ W=480n    
+ PD=1440n  
+ PS=1440n     
M_FINALDATA_RCA4BIT_FADDER2_M3         FINALDATA_N00643
+  FINALDATA_RCA4BIT_N00110 FINALDATA_RCA4BIT_FADDER2_N00202 0 MbreakND  
+ L=180n  
+ W=480n    
+ PD=1440n  
+ PS=1440n     
M_FINALDATA_RCA4BIT_FADDER2_M2         FINALDATA_RCA4BIT_FADDER2_N00202
+  FINALDATA_RCA4BIT_N01475 0 0 MbreakND  
+ L=180n  
+ W=480n    
+ PD=1440n  
+ PS=1440n     
M_FINALDATA_RCA4BIT_FADDER2_M6         FINALDATA_RCA4BIT_FADDER2_N00153
+  FINALDATA_RCA4BIT_N01385 0 0 MbreakND  
+ L=180n  
+ W=480n    
+ PD=1440n  
+ PS=1440n     
M_FINALDATA_RCA4BIT_FADDER2_M4         FINALDATA_RCA4BIT_FADDER2_N00202
+  FINALDATA_RCA4BIT_N01385 0 0 MbreakND  
+ L=180n  
+ W=480n    
+ PD=1440n  
+ PS=1440n     
M_FINALDATA_RCA4BIT_FADDER2_M8         FINALDATA_RCA4BIT_FADDER2_N00414
+  FINALDATA_RCA4BIT_N01385 0 0 MbreakND  
+ L=180n  
+ W=480n    
+ PD=1440n  
+ PS=1440n     
M_FINALDATA_RCA4BIT_FADDER2_M9         FINALDATA_RCA4BIT_FADDER2_N00414
+  FINALDATA_RCA4BIT_N00110 0 0 MbreakND  
+ L=180n  
+ W=480n    
+ PD=1440n  
+ PS=1440n     
M_FINALDATA_RCA4BIT_FADDER2_Mx32         FINALDATA_RCA4BIT_FADDER2_N00361
+  FINALDATA_RCA4BIT_N01385 0 0 MbreakND  
+ L=180n  
+ W=720n    
+ PD=1920n  
+ PS=1920n     
M_FINALDATA_RCA4BIT_FADDER2_Mx31         FINALDATA_RCA4BIT_FADDER2_N00358
+  FINALDATA_RCA4BIT_N01475 FINALDATA_RCA4BIT_FADDER2_N00361 0 MbreakND  
+ L=180n  
+ W=720n    
+ PD=1920n  
+ PS=1920n     
M_FINALDATA_RCA4BIT_FADDER2_Mx151         FINALDATA_RCA4BIT_FADDER2_N00347
+  FINALDATA_RCA4BIT_N01475 FINALDATA_RCA4BIT_FADDER2_N00344 VDD MbreakPD  
+ L=180n  
+ W=3600n    
+ PD=7680n  
+ PS=7680n     
M_FINALDATA_RCA4BIT_FADDER2_Mx152         FINALDATA_S3 FINALDATA_RCA4BIT_N00110
+  FINALDATA_RCA4BIT_FADDER2_N00347 VDD MbreakPD  
+ L=180n  
+ W=3600n    
+ PD=7680n  
+ PS=7680n     
M_FINALDATA_RCA4BIT_FADDER2_Mx107         FINALDATA_RCA4BIT_FADDER2_N00292
+  FINALDATA_RCA4BIT_N01385 VDD VDD MbreakPD  
+ L=180n  
+ W=2400n    
+ PD=5280n  
+ PS=5280n     
M_FINALDATA_RCA4BIT_FADDER2_M10         FINALDATA_RCA4BIT_FADDER2_N00414
+  FINALDATA_RCA4BIT_N01475 0 0 MbreakND  
+ L=180n  
+ W=480n    
+ PD=1440n  
+ PS=1440n     
M_FINALDATA_RCA4BIT_FADDER2_Mx106         FINALDATA_RCA4BIT_FADDER2_N00292
+  FINALDATA_RCA4BIT_N01475 VDD VDD MbreakPD  
+ L=180n  
+ W=2400n    
+ PD=5280n  
+ PS=5280n     
M_FINALDATA_RCA4BIT_FADDER2_Mx109         FINALDATA_RCA4BIT_FADDER2_N00292
+  FINALDATA_RCA4BIT_N00110 VDD VDD MbreakPD  
+ L=180n  
+ W=2400n    
+ PD=5280n  
+ PS=5280n     
M_FINALDATA_RCA4BIT_FADDER2_Mx108         FINALDATA_S3 FINALDATA_N00643
+  FINALDATA_RCA4BIT_FADDER2_N00292 VDD MbreakPD  
+ L=180n  
+ W=2400n    
+ PD=5280n  
+ PS=5280n     
M_FINALDATA_RCA4BIT_FADDER2_Mx33         FINALDATA_S3 FINALDATA_RCA4BIT_N00110
+  FINALDATA_RCA4BIT_FADDER2_N00358 0 MbreakND  
+ L=180n  
+ W=720n    
+ PD=1920n  
+ PS=1920n     
M_FINALDATA_RCA4BIT_FADDER2_Mx153         FINALDATA_RCA4BIT_FADDER2_N00344
+  FINALDATA_RCA4BIT_N01385 VDD VDD MbreakPD  
+ L=180n  
+ W=3600n    
+ PD=7680n  
+ PS=7680n     
M_FINALDATA_RCA4BIT_XOR_PG1_M2         FINALDATA_RCA4BIT_XOR_N00150
+  FINALDATA_RCA4BIT_XOR_BBAR C VDD MbreakPD  
+ L=180n  
+ W=240n    
+ PD=960n  
+ PS=960n     
M_FINALDATA_RCA4BIT_XOR_PG1_M1         C OUT1 FINALDATA_RCA4BIT_XOR_N00150 0
+  MbreakND  
+ L=180n  
+ W=240n    
+ PD=960n  
+ PS=960n     
M_FINALDATA_RCA4BIT_XOR_NOT3_M2         FINALDATA_RCA4BIT_N00254
+  FINALDATA_RCA4BIT_XOR_N00150 0 0 MbreakND  
+ L=180n  
+ W=480n    
+ PD=1440n  
+ PS=1440n     
M_FINALDATA_RCA4BIT_XOR_NOT3_M1         FINALDATA_RCA4BIT_N00254
+  FINALDATA_RCA4BIT_XOR_N00150 VDD VDD MbreakPD  
+ L=180n  
+ W=2400n    
+ PD=5280n  
+ PS=5280n     
M_FINALDATA_RCA4BIT_XOR_PG0_M2         FINALDATA_RCA4BIT_XOR_N00150 OUT1
+  FINALDATA_RCA4BIT_XOR_N00591 VDD MbreakPD  
+ L=180n  
+ W=240n    
+ PD=960n  
+ PS=960n     
M_FINALDATA_RCA4BIT_XOR_PG0_M1         FINALDATA_RCA4BIT_XOR_N00591
+  FINALDATA_RCA4BIT_XOR_BBAR FINALDATA_RCA4BIT_XOR_N00150 0 MbreakND  
+ L=180n  
+ W=240n    
+ PD=960n  
+ PS=960n     
M_FINALDATA_RCA4BIT_XOR_NOT2_M2         FINALDATA_RCA4BIT_XOR_BBAR OUT1 0 0
+  MbreakND  
+ L=180n  
+ W=240n    
+ PD=960n  
+ PS=960n     
M_FINALDATA_RCA4BIT_XOR_NOT2_M1         FINALDATA_RCA4BIT_XOR_BBAR OUT1 VDD VDD
+  MbreakPD  
+ L=180n  
+ W=1200n    
+ PD=2880n  
+ PS=2880n     
M_FINALDATA_RCA4BIT_XOR_NOT0_M2         FINALDATA_RCA4BIT_XOR_N00591 C 0 0
+  MbreakND  
+ L=180n  
+ W=240n    
+ PD=960n  
+ PS=960n     
M_FINALDATA_RCA4BIT_XOR_NOT0_M1         FINALDATA_RCA4BIT_XOR_N00591 C VDD VDD
+  MbreakPD  
+ L=180n  
+ W=1200n    
+ PD=2880n  
+ PS=2880n     
M_FINALDATA_RCA4BIT_XOR0_PG1_M2         FINALDATA_RCA4BIT_XOR0_N00150
+  FINALDATA_RCA4BIT_XOR0_BBAR C VDD MbreakPD  
+ L=180n  
+ W=240n    
+ PD=960n  
+ PS=960n     
M_FINALDATA_RCA4BIT_XOR0_PG1_M1         C OUT3 FINALDATA_RCA4BIT_XOR0_N00150 0
+  MbreakND  
+ L=180n  
+ W=240n    
+ PD=960n  
+ PS=960n     
M_FINALDATA_RCA4BIT_XOR0_NOT3_M2         FINALDATA_RCA4BIT_N00318
+  FINALDATA_RCA4BIT_XOR0_N00150 0 0 MbreakND  
+ L=180n  
+ W=480n    
+ PD=1440n  
+ PS=1440n     
M_FINALDATA_RCA4BIT_XOR0_NOT3_M1         FINALDATA_RCA4BIT_N00318
+  FINALDATA_RCA4BIT_XOR0_N00150 VDD VDD MbreakPD  
+ L=180n  
+ W=2400n    
+ PD=5280n  
+ PS=5280n     
M_FINALDATA_RCA4BIT_XOR0_PG0_M2         FINALDATA_RCA4BIT_XOR0_N00150 OUT3
+  FINALDATA_RCA4BIT_XOR0_N00591 VDD MbreakPD  
+ L=180n  
+ W=240n    
+ PD=960n  
+ PS=960n     
M_FINALDATA_RCA4BIT_XOR0_PG0_M1         FINALDATA_RCA4BIT_XOR0_N00591
+  FINALDATA_RCA4BIT_XOR0_BBAR FINALDATA_RCA4BIT_XOR0_N00150 0 MbreakND  
+ L=180n  
+ W=240n    
+ PD=960n  
+ PS=960n     
M_FINALDATA_RCA4BIT_XOR0_NOT2_M2         FINALDATA_RCA4BIT_XOR0_BBAR OUT3 0 0
+  MbreakND  
+ L=180n  
+ W=240n    
+ PD=960n  
+ PS=960n     
M_FINALDATA_RCA4BIT_XOR0_NOT2_M1         FINALDATA_RCA4BIT_XOR0_BBAR OUT3 VDD
+  VDD MbreakPD  
+ L=180n  
+ W=1200n    
+ PD=2880n  
+ PS=2880n     
M_FINALDATA_RCA4BIT_XOR0_NOT0_M2         FINALDATA_RCA4BIT_XOR0_N00591 C 0 0
+  MbreakND  
+ L=180n  
+ W=240n    
+ PD=960n  
+ PS=960n     
M_FINALDATA_RCA4BIT_XOR0_NOT0_M1         FINALDATA_RCA4BIT_XOR0_N00591 C VDD
+  VDD MbreakPD  
+ L=180n  
+ W=1200n    
+ PD=2880n  
+ PS=2880n     
M_FINALDATA_RCA4BIT_XOR2_PG1_M2         FINALDATA_RCA4BIT_XOR2_N00150
+  FINALDATA_RCA4BIT_XOR2_BBAR C VDD MbreakPD  
+ L=180n  
+ W=240n    
+ PD=960n  
+ PS=960n     
M_FINALDATA_RCA4BIT_XOR2_PG1_M1         C OUT4 FINALDATA_RCA4BIT_XOR2_N00150 0
+  MbreakND  
+ L=180n  
+ W=240n    
+ PD=960n  
+ PS=960n     
M_FINALDATA_RCA4BIT_XOR2_NOT3_M2         FINALDATA_RCA4BIT_N00424
+  FINALDATA_RCA4BIT_XOR2_N00150 0 0 MbreakND  
+ L=180n  
+ W=480n    
+ PD=1440n  
+ PS=1440n     
M_FINALDATA_RCA4BIT_XOR2_NOT3_M1         FINALDATA_RCA4BIT_N00424
+  FINALDATA_RCA4BIT_XOR2_N00150 VDD VDD MbreakPD  
+ L=180n  
+ W=2400n    
+ PD=5280n  
+ PS=5280n     
M_FINALDATA_RCA4BIT_XOR2_PG0_M2         FINALDATA_RCA4BIT_XOR2_N00150 OUT4
+  FINALDATA_RCA4BIT_XOR2_N00591 VDD MbreakPD  
+ L=180n  
+ W=240n    
+ PD=960n  
+ PS=960n     
M_FINALDATA_RCA4BIT_XOR2_PG0_M1         FINALDATA_RCA4BIT_XOR2_N00591
+  FINALDATA_RCA4BIT_XOR2_BBAR FINALDATA_RCA4BIT_XOR2_N00150 0 MbreakND  
+ L=180n  
+ W=240n    
+ PD=960n  
+ PS=960n     
M_FINALDATA_RCA4BIT_XOR2_NOT2_M2         FINALDATA_RCA4BIT_XOR2_BBAR OUT4 0 0
+  MbreakND  
+ L=180n  
+ W=240n    
+ PD=960n  
+ PS=960n     
M_FINALDATA_RCA4BIT_XOR2_NOT2_M1         FINALDATA_RCA4BIT_XOR2_BBAR OUT4 VDD
+  VDD MbreakPD  
+ L=180n  
+ W=1200n    
+ PD=2880n  
+ PS=2880n     
M_FINALDATA_RCA4BIT_XOR2_NOT0_M2         FINALDATA_RCA4BIT_XOR2_N00591 C 0 0
+  MbreakND  
+ L=180n  
+ W=240n    
+ PD=960n  
+ PS=960n     
M_FINALDATA_RCA4BIT_XOR2_NOT0_M1         FINALDATA_RCA4BIT_XOR2_N00591 C VDD
+  VDD MbreakPD  
+ L=180n  
+ W=1200n    
+ PD=2880n  
+ PS=2880n     
M_FINALDATA_RCA4BIT_XOR1_PG1_M2         FINALDATA_RCA4BIT_XOR1_N00150
+  FINALDATA_RCA4BIT_XOR1_BBAR C VDD MbreakPD  
+ L=180n  
+ W=240n    
+ PD=960n  
+ PS=960n     
M_FINALDATA_RCA4BIT_XOR1_PG1_M1         C OUT2 FINALDATA_RCA4BIT_XOR1_N00150 0
+  MbreakND  
+ L=180n  
+ W=240n    
+ PD=960n  
+ PS=960n     
M_FINALDATA_RCA4BIT_XOR1_NOT3_M2         FINALDATA_RCA4BIT_N00654
+  FINALDATA_RCA4BIT_XOR1_N00150 0 0 MbreakND  
+ L=180n  
+ W=480n    
+ PD=1440n  
+ PS=1440n     
M_FINALDATA_RCA4BIT_XOR1_NOT3_M1         FINALDATA_RCA4BIT_N00654
+  FINALDATA_RCA4BIT_XOR1_N00150 VDD VDD MbreakPD  
+ L=180n  
+ W=2400n    
+ PD=5280n  
+ PS=5280n     
M_FINALDATA_RCA4BIT_XOR1_PG0_M2         FINALDATA_RCA4BIT_XOR1_N00150 OUT2
+  FINALDATA_RCA4BIT_XOR1_N00591 VDD MbreakPD  
+ L=180n  
+ W=240n    
+ PD=960n  
+ PS=960n     
M_FINALDATA_RCA4BIT_XOR1_PG0_M1         FINALDATA_RCA4BIT_XOR1_N00591
+  FINALDATA_RCA4BIT_XOR1_BBAR FINALDATA_RCA4BIT_XOR1_N00150 0 MbreakND  
+ L=180n  
+ W=240n    
+ PD=960n  
+ PS=960n     
M_FINALDATA_RCA4BIT_XOR1_NOT2_M2         FINALDATA_RCA4BIT_XOR1_BBAR OUT2 0 0
+  MbreakND  
+ L=180n  
+ W=240n    
+ PD=960n  
+ PS=960n     
M_FINALDATA_RCA4BIT_XOR1_NOT2_M1         FINALDATA_RCA4BIT_XOR1_BBAR OUT2 VDD
+  VDD MbreakPD  
+ L=180n  
+ W=1200n    
+ PD=2880n  
+ PS=2880n     
M_FINALDATA_RCA4BIT_XOR1_NOT0_M2         FINALDATA_RCA4BIT_XOR1_N00591 C 0 0
+  MbreakND  
+ L=180n  
+ W=240n    
+ PD=960n  
+ PS=960n     
M_FINALDATA_RCA4BIT_XOR1_NOT0_M1         FINALDATA_RCA4BIT_XOR1_N00591 C VDD
+  VDD MbreakPD  
+ L=180n  
+ W=1200n    
+ PD=2880n  
+ PS=2880n     
M_FINALDATA_RCA4BIT_NOT_M2         FINALDATA_RCA4BIT_N01597 FINALDATA_Q1 0 0
+  MbreakND  
+ L=180n  
+ W=240n    
+ PD=960n  
+ PS=960n     
M_FINALDATA_RCA4BIT_NOT_M1         FINALDATA_RCA4BIT_N01597 FINALDATA_Q1 VDD
+  VDD MbreakPD  
+ L=180n  
+ W=1200n    
+ PD=2880n  
+ PS=2880n     
M_FINALDATA_RCA4BIT_NOT0_M2         FINALDATA_RCA4BIT_N01487
+  FINALDATA_RCA4BIT_N00654 0 0 MbreakND  
+ L=180n  
+ W=240n    
+ PD=960n  
+ PS=960n     
M_FINALDATA_RCA4BIT_NOT0_M1         FINALDATA_RCA4BIT_N01487
+  FINALDATA_RCA4BIT_N00654 VDD VDD MbreakPD  
+ L=180n  
+ W=1200n    
+ PD=2880n  
+ PS=2880n     
M_FINALDATA_RCA4BIT_NOT1_M2         FINALDATA_RCA4BIT_N01385
+  FINALDATA_RCA4BIT_N00424 0 0 MbreakND  
+ L=180n  
+ W=240n    
+ PD=960n  
+ PS=960n     
M_FINALDATA_RCA4BIT_NOT1_M1         FINALDATA_RCA4BIT_N01385
+  FINALDATA_RCA4BIT_N00424 VDD VDD MbreakPD  
+ L=180n  
+ W=1200n    
+ PD=2880n  
+ PS=2880n     
M_FINALDATA_RCA4BIT_NOT2_M2         FINALDATA_RCA4BIT_N01475 FINALDATA_Q3 0 0
+  MbreakND  
+ L=180n  
+ W=240n    
+ PD=960n  
+ PS=960n     
M_FINALDATA_RCA4BIT_NOT2_M1         FINALDATA_RCA4BIT_N01475 FINALDATA_Q3 VDD
+  VDD MbreakPD  
+ L=180n  
+ W=1200n    
+ PD=2880n  
+ PS=2880n     
M_FINALDATA_RCA4BIT_NOTT_M2         FINALDATA_S0 FINALDATA_RCA4BIT_N00014 0 0
+  MbreakND  
+ L=180n  
+ W=480n    
+ PD=1440n  
+ PS=1440n     
M_FINALDATA_RCA4BIT_NOTT_M1         FINALDATA_S0 FINALDATA_RCA4BIT_N00014 VDD
+  VDD MbreakPD  
+ L=180n  
+ W=2400n    
+ PD=5280n  
+ PS=5280n     
M_FINALDATA_RCA4BIT_NOTT1_M2         FINALDATA_S2 FINALDATA_RCA4BIT_N00106 0 0
+  MbreakND  
+ L=180n  
+ W=480n    
+ PD=1440n  
+ PS=1440n     
M_FINALDATA_RCA4BIT_NOTT1_M1         FINALDATA_S2 FINALDATA_RCA4BIT_N00106 VDD
+  VDD MbreakPD  
+ L=180n  
+ W=2400n    
+ PD=5280n  
+ PS=5280n     
M_FINALDATA_SHIFTER4BIT_SHIFTER_PASSGATE_M2        
+  FINALDATA_SHIFTER4BIT_SHIFTER_N00282 FINALDATA_SHIFTER4BIT_SHIFTER_N00014
+  FINALDATA_SHIFTER4BIT_A1BAR VDD MbreakPD  
+ L=180n  
+ W=240n    
+ PD=960n  
+ PS=960n     
M_FINALDATA_SHIFTER4BIT_SHIFTER_PASSGATE_M1         FINALDATA_SHIFTER4BIT_A1BAR
+  FINALDATA_SHIFTER4BIT_SFTBAR FINALDATA_SHIFTER4BIT_SHIFTER_N00282 0 MbreakND  
+ L=180n  
+ W=240n    
+ PD=960n  
+ PS=960n     
M_FINALDATA_SHIFTER4BIT_SHIFTER_NOT_M2        
+  FINALDATA_SHIFTER4BIT_SHIFTER_N00014 FINALDATA_SHIFTER4BIT_SFTBAR 0 0 MbreakND
+   
+ L=180n  
+ W=240n    
+ PD=960n  
+ PS=960n     
M_FINALDATA_SHIFTER4BIT_SHIFTER_NOT_M1        
+  FINALDATA_SHIFTER4BIT_SHIFTER_N00014 FINALDATA_SHIFTER4BIT_SFTBAR VDD VDD
+  MbreakPD  
+ L=180n  
+ W=1200n    
+ PD=2880n  
+ PS=2880n     
M_FINALDATA_SHIFTER4BIT_SHIFTER_NOT0_M2        
+  FINALDATA_SHIFTER4BIT_SHIFTER_N00074 0 0 0 MbreakND  
+ L=180n  
+ W=240n    
+ PD=960n  
+ PS=960n     
M_FINALDATA_SHIFTER4BIT_SHIFTER_NOT0_M1        
+  FINALDATA_SHIFTER4BIT_SHIFTER_N00074 0 VDD VDD MbreakPD  
+ L=180n  
+ W=1200n    
+ PD=2880n  
+ PS=2880n     
M_FINALDATA_SHIFTER4BIT_SHIFTER_PASSGATE0_M2        
+  FINALDATA_SHIFTER4BIT_SHIFTER_N00282 FINALDATA_SHIFTER4BIT_SHIFTER_N00074 VDD
+  VDD MbreakPD  
+ L=180n  
+ W=240n    
+ PD=960n  
+ PS=960n     
M_FINALDATA_SHIFTER4BIT_SHIFTER_PASSGATE0_M1         VDD 0
+  FINALDATA_SHIFTER4BIT_SHIFTER_N00282 0 MbreakND  
+ L=180n  
+ W=240n    
+ PD=960n  
+ PS=960n     
M_FINALDATA_SHIFTER4BIT_SHIFTER_NOT1_M2         FINALDATA_SHIFTER4BIT_N00032
+  FINALDATA_S0 0 0 MbreakND  
+ L=180n  
+ W=240n    
+ PD=960n  
+ PS=960n     
M_FINALDATA_SHIFTER4BIT_SHIFTER_NOT1_M1         FINALDATA_SHIFTER4BIT_N00032
+  FINALDATA_S0 VDD VDD MbreakPD  
+ L=180n  
+ W=1200n    
+ PD=2880n  
+ PS=2880n     
M_FINALDATA_SHIFTER4BIT_SHIFTER_NOT22_M2         FINALDATA_N00278
+  FINALDATA_SHIFTER4BIT_SHIFTER_N00282 0 0 MbreakND  
+ L=180n  
+ W=480n    
+ PD=1440n  
+ PS=1440n     
M_FINALDATA_SHIFTER4BIT_SHIFTER_NOT22_M1         FINALDATA_N00278
+  FINALDATA_SHIFTER4BIT_SHIFTER_N00282 VDD VDD MbreakPD  
+ L=180n  
+ W=2400n    
+ PD=5280n  
+ PS=5280n     
M_FINALDATA_SHIFTER4BIT_NOT_M2         FINALDATA_SHIFTER4BIT_SFTBAR 0 0 0
+  MbreakND  
+ L=180n  
+ W=480n    
+ PD=1440n  
+ PS=1440n     
M_FINALDATA_SHIFTER4BIT_NOT_M1         FINALDATA_SHIFTER4BIT_SFTBAR 0 VDD VDD
+  MbreakPD  
+ L=180n  
+ W=2400n    
+ PD=5280n  
+ PS=5280n     
M_FINALDATA_SHIFTER4BIT_SHIFTER0_PASSGATE_M2        
+  FINALDATA_SHIFTER4BIT_SHIFTER0_N00282 FINALDATA_SHIFTER4BIT_SHIFTER0_N00014
+  FINALDATA_SHIFTER4BIT_A2BAR VDD MbreakPD  
+ L=180n  
+ W=240n    
+ PD=960n  
+ PS=960n     
M_FINALDATA_SHIFTER4BIT_SHIFTER0_PASSGATE_M1        
+  FINALDATA_SHIFTER4BIT_A2BAR FINALDATA_SHIFTER4BIT_SFTBAR
+  FINALDATA_SHIFTER4BIT_SHIFTER0_N00282 0 MbreakND  
+ L=180n  
+ W=240n    
+ PD=960n  
+ PS=960n     
M_FINALDATA_SHIFTER4BIT_SHIFTER0_NOT_M2        
+  FINALDATA_SHIFTER4BIT_SHIFTER0_N00014 FINALDATA_SHIFTER4BIT_SFTBAR 0 0
+  MbreakND  
+ L=180n  
+ W=240n    
+ PD=960n  
+ PS=960n     
M_FINALDATA_SHIFTER4BIT_SHIFTER0_NOT_M1        
+  FINALDATA_SHIFTER4BIT_SHIFTER0_N00014 FINALDATA_SHIFTER4BIT_SFTBAR VDD VDD
+  MbreakPD  
+ L=180n  
+ W=1200n    
+ PD=2880n  
+ PS=2880n     
M_FINALDATA_SHIFTER4BIT_SHIFTER0_NOT0_M2        
+  FINALDATA_SHIFTER4BIT_SHIFTER0_N00074 0 0 0 MbreakND  
+ L=180n  
+ W=240n    
+ PD=960n  
+ PS=960n     
M_FINALDATA_SHIFTER4BIT_SHIFTER0_NOT0_M1        
+  FINALDATA_SHIFTER4BIT_SHIFTER0_N00074 0 VDD VDD MbreakPD  
+ L=180n  
+ W=1200n    
+ PD=2880n  
+ PS=2880n     
M_FINALDATA_SHIFTER4BIT_SHIFTER0_PASSGATE0_M2        
+  FINALDATA_SHIFTER4BIT_SHIFTER0_N00282 FINALDATA_SHIFTER4BIT_SHIFTER0_N00074
+  FINALDATA_SHIFTER4BIT_N00032 VDD MbreakPD  
+ L=180n  
+ W=240n    
+ PD=960n  
+ PS=960n     
M_FINALDATA_SHIFTER4BIT_SHIFTER0_PASSGATE0_M1        
+  FINALDATA_SHIFTER4BIT_N00032 0 FINALDATA_SHIFTER4BIT_SHIFTER0_N00282 0
+  MbreakND  
+ L=180n  
+ W=240n    
+ PD=960n  
+ PS=960n     
M_FINALDATA_SHIFTER4BIT_SHIFTER0_NOT1_M2         FINALDATA_SHIFTER4BIT_A1BAR
+  FINALDATA_S1 0 0 MbreakND  
+ L=180n  
+ W=240n    
+ PD=960n  
+ PS=960n     
M_FINALDATA_SHIFTER4BIT_SHIFTER0_NOT1_M1         FINALDATA_SHIFTER4BIT_A1BAR
+  FINALDATA_S1 VDD VDD MbreakPD  
+ L=180n  
+ W=1200n    
+ PD=2880n  
+ PS=2880n     
M_FINALDATA_SHIFTER4BIT_SHIFTER0_NOT22_M2         FINALDATA_N00288
+  FINALDATA_SHIFTER4BIT_SHIFTER0_N00282 0 0 MbreakND  
+ L=180n  
+ W=480n    
+ PD=1440n  
+ PS=1440n     
M_FINALDATA_SHIFTER4BIT_SHIFTER0_NOT22_M1         FINALDATA_N00288
+  FINALDATA_SHIFTER4BIT_SHIFTER0_N00282 VDD VDD MbreakPD  
+ L=180n  
+ W=2400n    
+ PD=5280n  
+ PS=5280n     
M_FINALDATA_SHIFTER4BIT_SHIFTER1_PASSGATE_M2        
+  FINALDATA_SHIFTER4BIT_SHIFTER1_N00282 FINALDATA_SHIFTER4BIT_SHIFTER1_N00014
+  FINALDATA_SHIFTER4BIT_A3BAR VDD MbreakPD  
+ L=180n  
+ W=240n    
+ PD=960n  
+ PS=960n     
M_FINALDATA_SHIFTER4BIT_SHIFTER1_PASSGATE_M1        
+  FINALDATA_SHIFTER4BIT_A3BAR FINALDATA_SHIFTER4BIT_SFTBAR
+  FINALDATA_SHIFTER4BIT_SHIFTER1_N00282 0 MbreakND  
+ L=180n  
+ W=240n    
+ PD=960n  
+ PS=960n     
M_FINALDATA_SHIFTER4BIT_SHIFTER1_NOT_M2        
+  FINALDATA_SHIFTER4BIT_SHIFTER1_N00014 FINALDATA_SHIFTER4BIT_SFTBAR 0 0
+  MbreakND  
+ L=180n  
+ W=240n    
+ PD=960n  
+ PS=960n     
M_FINALDATA_SHIFTER4BIT_SHIFTER1_NOT_M1        
+  FINALDATA_SHIFTER4BIT_SHIFTER1_N00014 FINALDATA_SHIFTER4BIT_SFTBAR VDD VDD
+  MbreakPD  
+ L=180n  
+ W=1200n    
+ PD=2880n  
+ PS=2880n     
M_FINALDATA_SHIFTER4BIT_SHIFTER1_NOT0_M2        
+  FINALDATA_SHIFTER4BIT_SHIFTER1_N00074 0 0 0 MbreakND  
+ L=180n  
+ W=240n    
+ PD=960n  
+ PS=960n     
M_FINALDATA_SHIFTER4BIT_SHIFTER1_NOT0_M1        
+  FINALDATA_SHIFTER4BIT_SHIFTER1_N00074 0 VDD VDD MbreakPD  
+ L=180n  
+ W=1200n    
+ PD=2880n  
+ PS=2880n     
M_FINALDATA_SHIFTER4BIT_SHIFTER1_PASSGATE0_M2        
+  FINALDATA_SHIFTER4BIT_SHIFTER1_N00282 FINALDATA_SHIFTER4BIT_SHIFTER1_N00074
+  FINALDATA_SHIFTER4BIT_A1BAR VDD MbreakPD  
+ L=180n  
+ W=240n    
+ PD=960n  
+ PS=960n     
M_FINALDATA_SHIFTER4BIT_SHIFTER1_PASSGATE0_M1        
+  FINALDATA_SHIFTER4BIT_A1BAR 0 FINALDATA_SHIFTER4BIT_SHIFTER1_N00282 0 MbreakND
+   
+ L=180n  
+ W=240n    
+ PD=960n  
+ PS=960n     
M_FINALDATA_SHIFTER4BIT_SHIFTER1_NOT1_M2         FINALDATA_SHIFTER4BIT_A2BAR
+  FINALDATA_S2 0 0 MbreakND  
+ L=180n  
+ W=240n    
+ PD=960n  
+ PS=960n     
M_FINALDATA_SHIFTER4BIT_SHIFTER1_NOT1_M1         FINALDATA_SHIFTER4BIT_A2BAR
+  FINALDATA_S2 VDD VDD MbreakPD  
+ L=180n  
+ W=1200n    
+ PD=2880n  
+ PS=2880n     
M_FINALDATA_SHIFTER4BIT_SHIFTER1_NOT22_M2         FINALDATA_N00293
+  FINALDATA_SHIFTER4BIT_SHIFTER1_N00282 0 0 MbreakND  
+ L=180n  
+ W=480n    
+ PD=1440n  
+ PS=1440n     
M_FINALDATA_SHIFTER4BIT_SHIFTER1_NOT22_M1         FINALDATA_N00293
+  FINALDATA_SHIFTER4BIT_SHIFTER1_N00282 VDD VDD MbreakPD  
+ L=180n  
+ W=2400n    
+ PD=5280n  
+ PS=5280n     
M_FINALDATA_SHIFTER4BIT_SHIFTER2_PASSGATE_M2        
+  FINALDATA_SHIFTER4BIT_SHIFTER2_N00282 FINALDATA_SHIFTER4BIT_SHIFTER2_N00014
+  VDD VDD MbreakPD  
+ L=180n  
+ W=240n    
+ PD=960n  
+ PS=960n     
M_FINALDATA_SHIFTER4BIT_SHIFTER2_PASSGATE_M1         VDD
+  FINALDATA_SHIFTER4BIT_SFTBAR FINALDATA_SHIFTER4BIT_SHIFTER2_N00282 0 MbreakND 
+  
+ L=180n  
+ W=240n    
+ PD=960n  
+ PS=960n     
M_FINALDATA_SHIFTER4BIT_SHIFTER2_NOT_M2        
+  FINALDATA_SHIFTER4BIT_SHIFTER2_N00014 FINALDATA_SHIFTER4BIT_SFTBAR 0 0
+  MbreakND  
+ L=180n  
+ W=240n    
+ PD=960n  
+ PS=960n     
M_FINALDATA_SHIFTER4BIT_SHIFTER2_NOT_M1        
+  FINALDATA_SHIFTER4BIT_SHIFTER2_N00014 FINALDATA_SHIFTER4BIT_SFTBAR VDD VDD
+  MbreakPD  
+ L=180n  
+ W=1200n    
+ PD=2880n  
+ PS=2880n     
M_FINALDATA_SHIFTER4BIT_SHIFTER2_NOT0_M2        
+  FINALDATA_SHIFTER4BIT_SHIFTER2_N00074 0 0 0 MbreakND  
+ L=180n  
+ W=240n    
+ PD=960n  
+ PS=960n     
M_FINALDATA_SHIFTER4BIT_SHIFTER2_NOT0_M1        
+  FINALDATA_SHIFTER4BIT_SHIFTER2_N00074 0 VDD VDD MbreakPD  
+ L=180n  
+ W=1200n    
+ PD=2880n  
+ PS=2880n     
M_FINALDATA_SHIFTER4BIT_SHIFTER2_PASSGATE0_M2        
+  FINALDATA_SHIFTER4BIT_SHIFTER2_N00282 FINALDATA_SHIFTER4BIT_SHIFTER2_N00074
+  FINALDATA_SHIFTER4BIT_A2BAR VDD MbreakPD  
+ L=180n  
+ W=240n    
+ PD=960n  
+ PS=960n     
M_FINALDATA_SHIFTER4BIT_SHIFTER2_PASSGATE0_M1        
+  FINALDATA_SHIFTER4BIT_A2BAR 0 FINALDATA_SHIFTER4BIT_SHIFTER2_N00282 0 MbreakND
+   
+ L=180n  
+ W=240n    
+ PD=960n  
+ PS=960n     
M_FINALDATA_SHIFTER4BIT_SHIFTER2_NOT1_M2         FINALDATA_SHIFTER4BIT_A3BAR
+  FINALDATA_S3 0 0 MbreakND  
+ L=180n  
+ W=240n    
+ PD=960n  
+ PS=960n     
M_FINALDATA_SHIFTER4BIT_SHIFTER2_NOT1_M1         FINALDATA_SHIFTER4BIT_A3BAR
+  FINALDATA_S3 VDD VDD MbreakPD  
+ L=180n  
+ W=1200n    
+ PD=2880n  
+ PS=2880n     
M_FINALDATA_SHIFTER4BIT_SHIFTER2_NOT22_M2         FINALDATA_N00298
+  FINALDATA_SHIFTER4BIT_SHIFTER2_N00282 0 0 MbreakND  
+ L=180n  
+ W=480n    
+ PD=1440n  
+ PS=1440n     
M_FINALDATA_SHIFTER4BIT_SHIFTER2_NOT22_M1         FINALDATA_N00298
+  FINALDATA_SHIFTER4BIT_SHIFTER2_N00282 VDD VDD MbreakPD  
+ L=180n  
+ W=2400n    
+ PD=5280n  
+ PS=5280n     
M_FINALDATA_MUX421_MUX_NOT1_M2         FINALDATA_MUX421_MUX_N00144
+  FINALDATA_N00278 0 0 MbreakND  
+ L=180n  
+ W=240n    
+ PD=960n  
+ PS=960n     
M_FINALDATA_MUX421_MUX_NOT1_M1         FINALDATA_MUX421_MUX_N00144
+  FINALDATA_N00278 VDD VDD MbreakPD  
+ L=180n  
+ W=1200n    
+ PD=2880n  
+ PS=2880n     
M_FINALDATA_MUX421_MUX_NOT0_M2         FINALDATA_MUX421_MUX_N00147
+  FINALDATA_N00301 0 0 MbreakND  
+ L=180n  
+ W=240n    
+ PD=960n  
+ PS=960n     
M_FINALDATA_MUX421_MUX_NOT0_M1         FINALDATA_MUX421_MUX_N00147
+  FINALDATA_N00301 VDD VDD MbreakPD  
+ L=180n  
+ W=1200n    
+ PD=2880n  
+ PS=2880n     
M_FINALDATA_MUX421_MUX_NOT2_M2         FINALDATA_MUX421_MUX_SBAR E 0 0 MbreakND
+   
+ L=180n  
+ W=240n    
+ PD=960n  
+ PS=960n     
M_FINALDATA_MUX421_MUX_NOT2_M1         FINALDATA_MUX421_MUX_SBAR E VDD VDD
+  MbreakPD  
+ L=180n  
+ W=1200n    
+ PD=2880n  
+ PS=2880n     
M_FINALDATA_MUX421_MUX_NOT3_M2         FINALDATA_N00433
+  FINALDATA_MUX421_MUX_N00150 0 0 MbreakND  
+ L=180n  
+ W=480n    
+ PD=1440n  
+ PS=1440n     
M_FINALDATA_MUX421_MUX_NOT3_M1         FINALDATA_N00433
+  FINALDATA_MUX421_MUX_N00150 VDD VDD MbreakPD  
+ L=180n  
+ W=2400n    
+ PD=5280n  
+ PS=5280n     
M_FINALDATA_MUX421_MUX_PG1_M2         FINALDATA_MUX421_MUX_N00150
+  FINALDATA_MUX421_MUX_SBAR FINALDATA_MUX421_MUX_N00144 VDD MbreakPD  
+ L=180n  
+ W=240n    
+ PD=960n  
+ PS=960n     
M_FINALDATA_MUX421_MUX_PG1_M1         FINALDATA_MUX421_MUX_N00144 E
+  FINALDATA_MUX421_MUX_N00150 0 MbreakND  
+ L=180n  
+ W=240n    
+ PD=960n  
+ PS=960n     
M_FINALDATA_MUX421_MUX_PG0_M2         FINALDATA_MUX421_MUX_N00150 E
+  FINALDATA_MUX421_MUX_N00147 VDD MbreakPD  
+ L=180n  
+ W=240n    
+ PD=960n  
+ PS=960n     
M_FINALDATA_MUX421_MUX_PG0_M1         FINALDATA_MUX421_MUX_N00147
+  FINALDATA_MUX421_MUX_SBAR FINALDATA_MUX421_MUX_N00150 0 MbreakND  
+ L=180n  
+ W=240n    
+ PD=960n  
+ PS=960n     
M_FINALDATA_MUX421_MUX0_NOT1_M2         FINALDATA_MUX421_MUX0_N00144
+  FINALDATA_N00288 0 0 MbreakND  
+ L=180n  
+ W=240n    
+ PD=960n  
+ PS=960n     
M_FINALDATA_MUX421_MUX0_NOT1_M1         FINALDATA_MUX421_MUX0_N00144
+  FINALDATA_N00288 VDD VDD MbreakPD  
+ L=180n  
+ W=1200n    
+ PD=2880n  
+ PS=2880n     
M_FINALDATA_MUX421_MUX0_NOT0_M2         FINALDATA_MUX421_MUX0_N00147
+  FINALDATA_N00313 0 0 MbreakND  
+ L=180n  
+ W=240n    
+ PD=960n  
+ PS=960n     
M_FINALDATA_MUX421_MUX0_NOT0_M1         FINALDATA_MUX421_MUX0_N00147
+  FINALDATA_N00313 VDD VDD MbreakPD  
+ L=180n  
+ W=1200n    
+ PD=2880n  
+ PS=2880n     
M_FINALDATA_MUX421_MUX0_NOT2_M2         FINALDATA_MUX421_MUX0_SBAR E 0 0
+  MbreakND  
+ L=180n  
+ W=240n    
+ PD=960n  
+ PS=960n     
M_FINALDATA_MUX421_MUX0_NOT2_M1         FINALDATA_MUX421_MUX0_SBAR E VDD VDD
+  MbreakPD  
+ L=180n  
+ W=1200n    
+ PD=2880n  
+ PS=2880n     
M_FINALDATA_MUX421_MUX0_NOT3_M2         FINALDATA_N00438
+  FINALDATA_MUX421_MUX0_N00150 0 0 MbreakND  
+ L=180n  
+ W=480n    
+ PD=1440n  
+ PS=1440n     
M_FINALDATA_MUX421_MUX0_NOT3_M1         FINALDATA_N00438
+  FINALDATA_MUX421_MUX0_N00150 VDD VDD MbreakPD  
+ L=180n  
+ W=2400n    
+ PD=5280n  
+ PS=5280n     
M_FINALDATA_MUX421_MUX0_PG1_M2         FINALDATA_MUX421_MUX0_N00150
+  FINALDATA_MUX421_MUX0_SBAR FINALDATA_MUX421_MUX0_N00144 VDD MbreakPD  
+ L=180n  
+ W=240n    
+ PD=960n  
+ PS=960n     
M_FINALDATA_MUX421_MUX0_PG1_M1         FINALDATA_MUX421_MUX0_N00144 E
+  FINALDATA_MUX421_MUX0_N00150 0 MbreakND  
+ L=180n  
+ W=240n    
+ PD=960n  
+ PS=960n     
M_FINALDATA_MUX421_MUX0_PG0_M2         FINALDATA_MUX421_MUX0_N00150 E
+  FINALDATA_MUX421_MUX0_N00147 VDD MbreakPD  
+ L=180n  
+ W=240n    
+ PD=960n  
+ PS=960n     
M_FINALDATA_MUX421_MUX0_PG0_M1         FINALDATA_MUX421_MUX0_N00147
+  FINALDATA_MUX421_MUX0_SBAR FINALDATA_MUX421_MUX0_N00150 0 MbreakND  
+ L=180n  
+ W=240n    
+ PD=960n  
+ PS=960n     
M_FINALDATA_MUX421_MUX1_NOT1_M2         FINALDATA_MUX421_MUX1_N00144
+  FINALDATA_N00293 0 0 MbreakND  
+ L=180n  
+ W=240n    
+ PD=960n  
+ PS=960n     
M_FINALDATA_MUX421_MUX1_NOT1_M1         FINALDATA_MUX421_MUX1_N00144
+  FINALDATA_N00293 VDD VDD MbreakPD  
+ L=180n  
+ W=1200n    
+ PD=2880n  
+ PS=2880n     
M_FINALDATA_MUX421_MUX1_NOT0_M2         FINALDATA_MUX421_MUX1_N00147
+  FINALDATA_N00325 0 0 MbreakND  
+ L=180n  
+ W=240n    
+ PD=960n  
+ PS=960n     
M_FINALDATA_MUX421_MUX1_NOT0_M1         FINALDATA_MUX421_MUX1_N00147
+  FINALDATA_N00325 VDD VDD MbreakPD  
+ L=180n  
+ W=1200n    
+ PD=2880n  
+ PS=2880n     
M_FINALDATA_MUX421_MUX1_NOT2_M2         FINALDATA_MUX421_MUX1_SBAR E 0 0
+  MbreakND  
+ L=180n  
+ W=240n    
+ PD=960n  
+ PS=960n     
M_FINALDATA_MUX421_MUX1_NOT2_M1         FINALDATA_MUX421_MUX1_SBAR E VDD VDD
+  MbreakPD  
+ L=180n  
+ W=1200n    
+ PD=2880n  
+ PS=2880n     
M_FINALDATA_MUX421_MUX1_NOT3_M2         FINALDATA_N00443
+  FINALDATA_MUX421_MUX1_N00150 0 0 MbreakND  
+ L=180n  
+ W=480n    
+ PD=1440n  
+ PS=1440n     
M_FINALDATA_MUX421_MUX1_NOT3_M1         FINALDATA_N00443
+  FINALDATA_MUX421_MUX1_N00150 VDD VDD MbreakPD  
+ L=180n  
+ W=2400n    
+ PD=5280n  
+ PS=5280n     
M_FINALDATA_MUX421_MUX1_PG1_M2         FINALDATA_MUX421_MUX1_N00150
+  FINALDATA_MUX421_MUX1_SBAR FINALDATA_MUX421_MUX1_N00144 VDD MbreakPD  
+ L=180n  
+ W=240n    
+ PD=960n  
+ PS=960n     
M_FINALDATA_MUX421_MUX1_PG1_M1         FINALDATA_MUX421_MUX1_N00144 E
+  FINALDATA_MUX421_MUX1_N00150 0 MbreakND  
+ L=180n  
+ W=240n    
+ PD=960n  
+ PS=960n     
M_FINALDATA_MUX421_MUX1_PG0_M2         FINALDATA_MUX421_MUX1_N00150 E
+  FINALDATA_MUX421_MUX1_N00147 VDD MbreakPD  
+ L=180n  
+ W=240n    
+ PD=960n  
+ PS=960n     
M_FINALDATA_MUX421_MUX1_PG0_M1         FINALDATA_MUX421_MUX1_N00147
+  FINALDATA_MUX421_MUX1_SBAR FINALDATA_MUX421_MUX1_N00150 0 MbreakND  
+ L=180n  
+ W=240n    
+ PD=960n  
+ PS=960n     
M_FINALDATA_MUX421_MUX2_NOT1_M2         FINALDATA_MUX421_MUX2_N00144
+  FINALDATA_N00298 0 0 MbreakND  
+ L=180n  
+ W=240n    
+ PD=960n  
+ PS=960n     
M_FINALDATA_MUX421_MUX2_NOT1_M1         FINALDATA_MUX421_MUX2_N00144
+  FINALDATA_N00298 VDD VDD MbreakPD  
+ L=180n  
+ W=1200n    
+ PD=2880n  
+ PS=2880n     
M_FINALDATA_MUX421_MUX2_NOT0_M2         FINALDATA_MUX421_MUX2_N00147
+  FINALDATA_N00337 0 0 MbreakND  
+ L=180n  
+ W=240n    
+ PD=960n  
+ PS=960n     
M_FINALDATA_MUX421_MUX2_NOT0_M1         FINALDATA_MUX421_MUX2_N00147
+  FINALDATA_N00337 VDD VDD MbreakPD  
+ L=180n  
+ W=1200n    
+ PD=2880n  
+ PS=2880n     
M_FINALDATA_MUX421_MUX2_NOT2_M2         FINALDATA_MUX421_MUX2_SBAR E 0 0
+  MbreakND  
+ L=180n  
+ W=240n    
+ PD=960n  
+ PS=960n     
M_FINALDATA_MUX421_MUX2_NOT2_M1         FINALDATA_MUX421_MUX2_SBAR E VDD VDD
+  MbreakPD  
+ L=180n  
+ W=1200n    
+ PD=2880n  
+ PS=2880n     
M_FINALDATA_MUX421_MUX2_NOT3_M2         FINALDATA_N00448
+  FINALDATA_MUX421_MUX2_N00150 0 0 MbreakND  
+ L=180n  
+ W=480n    
+ PD=1440n  
+ PS=1440n     
M_FINALDATA_MUX421_MUX2_NOT3_M1         FINALDATA_N00448
+  FINALDATA_MUX421_MUX2_N00150 VDD VDD MbreakPD  
+ L=180n  
+ W=2400n    
+ PD=5280n  
+ PS=5280n     
M_FINALDATA_MUX421_MUX2_PG1_M2         FINALDATA_MUX421_MUX2_N00150
+  FINALDATA_MUX421_MUX2_SBAR FINALDATA_MUX421_MUX2_N00144 VDD MbreakPD  
+ L=180n  
+ W=240n    
+ PD=960n  
+ PS=960n     
M_FINALDATA_MUX421_MUX2_PG1_M1         FINALDATA_MUX421_MUX2_N00144 E
+  FINALDATA_MUX421_MUX2_N00150 0 MbreakND  
+ L=180n  
+ W=240n    
+ PD=960n  
+ PS=960n     
M_FINALDATA_MUX421_MUX2_PG0_M2         FINALDATA_MUX421_MUX2_N00150 E
+  FINALDATA_MUX421_MUX2_N00147 VDD MbreakPD  
+ L=180n  
+ W=240n    
+ PD=960n  
+ PS=960n     
M_FINALDATA_MUX421_MUX2_PG0_M1         FINALDATA_MUX421_MUX2_N00147
+  FINALDATA_MUX421_MUX2_SBAR FINALDATA_MUX421_MUX2_N00150 0 MbreakND  
+ L=180n  
+ W=240n    
+ PD=960n  
+ PS=960n     
M_FINALDATA_MUX0_MUX_NOT1_M2         FINALDATA_MUX0_MUX_N00144 FINALDATA_S0 0 0
+  MbreakND  
+ L=180n  
+ W=240n    
+ PD=960n  
+ PS=960n     
M_FINALDATA_MUX0_MUX_NOT1_M1         FINALDATA_MUX0_MUX_N00144 FINALDATA_S0 VDD
+  VDD MbreakPD  
+ L=180n  
+ W=1200n    
+ PD=2880n  
+ PS=2880n     
M_FINALDATA_MUX0_MUX_NOT0_M2         FINALDATA_MUX0_MUX_N00147 FINALDATA_Q0 0 0
+  MbreakND  
+ L=180n  
+ W=240n    
+ PD=960n  
+ PS=960n     
M_FINALDATA_MUX0_MUX_NOT0_M1         FINALDATA_MUX0_MUX_N00147 FINALDATA_Q0 VDD
+  VDD MbreakPD  
+ L=180n  
+ W=1200n    
+ PD=2880n  
+ PS=2880n     
M_FINALDATA_MUX0_MUX_NOT2_M2         FINALDATA_MUX0_MUX_SBAR B 0 0 MbreakND  
+ L=180n  
+ W=240n    
+ PD=960n  
+ PS=960n     
M_FINALDATA_MUX0_MUX_NOT2_M1         FINALDATA_MUX0_MUX_SBAR B VDD VDD MbreakPD
+   
+ L=180n  
+ W=1200n    
+ PD=2880n  
+ PS=2880n     
M_FINALDATA_MUX0_MUX_NOT3_M2         FINALDATA_N00301 FINALDATA_MUX0_MUX_N00150
+  0 0 MbreakND  
+ L=180n  
+ W=480n    
+ PD=1440n  
+ PS=1440n     
M_FINALDATA_MUX0_MUX_NOT3_M1         FINALDATA_N00301 FINALDATA_MUX0_MUX_N00150
+  VDD VDD MbreakPD  
+ L=180n  
+ W=2400n    
+ PD=5280n  
+ PS=5280n     
M_FINALDATA_MUX0_MUX_PG1_M2         FINALDATA_MUX0_MUX_N00150
+  FINALDATA_MUX0_MUX_SBAR FINALDATA_MUX0_MUX_N00144 VDD MbreakPD  
+ L=180n  
+ W=240n    
+ PD=960n  
+ PS=960n     
M_FINALDATA_MUX0_MUX_PG1_M1         FINALDATA_MUX0_MUX_N00144 B
+  FINALDATA_MUX0_MUX_N00150 0 MbreakND  
+ L=180n  
+ W=240n    
+ PD=960n  
+ PS=960n     
M_FINALDATA_MUX0_MUX_PG0_M2         FINALDATA_MUX0_MUX_N00150 B
+  FINALDATA_MUX0_MUX_N00147 VDD MbreakPD  
+ L=180n  
+ W=240n    
+ PD=960n  
+ PS=960n     
M_FINALDATA_MUX0_MUX_PG0_M1         FINALDATA_MUX0_MUX_N00147
+  FINALDATA_MUX0_MUX_SBAR FINALDATA_MUX0_MUX_N00150 0 MbreakND  
+ L=180n  
+ W=240n    
+ PD=960n  
+ PS=960n     
M_FINALDATA_MUX0_MUX0_NOT1_M2         FINALDATA_MUX0_MUX0_N00144 FINALDATA_S1 0
+  0 MbreakND  
+ L=180n  
+ W=240n    
+ PD=960n  
+ PS=960n     
M_FINALDATA_MUX0_MUX0_NOT1_M1         FINALDATA_MUX0_MUX0_N00144 FINALDATA_S1
+  VDD VDD MbreakPD  
+ L=180n  
+ W=1200n    
+ PD=2880n  
+ PS=2880n     
M_FINALDATA_MUX0_MUX0_NOT0_M2         FINALDATA_MUX0_MUX0_N00147 FINALDATA_Q1 0
+  0 MbreakND  
+ L=180n  
+ W=240n    
+ PD=960n  
+ PS=960n     
M_FINALDATA_MUX0_MUX0_NOT0_M1         FINALDATA_MUX0_MUX0_N00147 FINALDATA_Q1
+  VDD VDD MbreakPD  
+ L=180n  
+ W=1200n    
+ PD=2880n  
+ PS=2880n     
M_FINALDATA_MUX0_MUX0_NOT2_M2         FINALDATA_MUX0_MUX0_SBAR B 0 0 MbreakND  
+ L=180n  
+ W=240n    
+ PD=960n  
+ PS=960n     
M_FINALDATA_MUX0_MUX0_NOT2_M1         FINALDATA_MUX0_MUX0_SBAR B VDD VDD
+  MbreakPD  
+ L=180n  
+ W=1200n    
+ PD=2880n  
+ PS=2880n     
M_FINALDATA_MUX0_MUX0_NOT3_M2         FINALDATA_N00313
+  FINALDATA_MUX0_MUX0_N00150 0 0 MbreakND  
+ L=180n  
+ W=480n    
+ PD=1440n  
+ PS=1440n     
M_FINALDATA_MUX0_MUX0_NOT3_M1         FINALDATA_N00313
+  FINALDATA_MUX0_MUX0_N00150 VDD VDD MbreakPD  
+ L=180n  
+ W=2400n    
+ PD=5280n  
+ PS=5280n     
M_FINALDATA_MUX0_MUX0_PG1_M2         FINALDATA_MUX0_MUX0_N00150
+  FINALDATA_MUX0_MUX0_SBAR FINALDATA_MUX0_MUX0_N00144 VDD MbreakPD  
+ L=180n  
+ W=240n    
+ PD=960n  
+ PS=960n     
M_FINALDATA_MUX0_MUX0_PG1_M1         FINALDATA_MUX0_MUX0_N00144 B
+  FINALDATA_MUX0_MUX0_N00150 0 MbreakND  
+ L=180n  
+ W=240n    
+ PD=960n  
+ PS=960n     
M_FINALDATA_MUX0_MUX0_PG0_M2         FINALDATA_MUX0_MUX0_N00150 B
+  FINALDATA_MUX0_MUX0_N00147 VDD MbreakPD  
+ L=180n  
+ W=240n    
+ PD=960n  
+ PS=960n     
M_FINALDATA_MUX0_MUX0_PG0_M1         FINALDATA_MUX0_MUX0_N00147
+  FINALDATA_MUX0_MUX0_SBAR FINALDATA_MUX0_MUX0_N00150 0 MbreakND  
+ L=180n  
+ W=240n    
+ PD=960n  
+ PS=960n     
M_FINALDATA_MUX0_MUX1_NOT1_M2         FINALDATA_MUX0_MUX1_N00144 FINALDATA_S2 0
+  0 MbreakND  
+ L=180n  
+ W=240n    
+ PD=960n  
+ PS=960n     
M_FINALDATA_MUX0_MUX1_NOT1_M1         FINALDATA_MUX0_MUX1_N00144 FINALDATA_S2
+  VDD VDD MbreakPD  
+ L=180n  
+ W=1200n    
+ PD=2880n  
+ PS=2880n     
M_FINALDATA_MUX0_MUX1_NOT0_M2         FINALDATA_MUX0_MUX1_N00147 FINALDATA_Q2 0
+  0 MbreakND  
+ L=180n  
+ W=240n    
+ PD=960n  
+ PS=960n     
M_FINALDATA_MUX0_MUX1_NOT0_M1         FINALDATA_MUX0_MUX1_N00147 FINALDATA_Q2
+  VDD VDD MbreakPD  
+ L=180n  
+ W=1200n    
+ PD=2880n  
+ PS=2880n     
M_FINALDATA_MUX0_MUX1_NOT2_M2         FINALDATA_MUX0_MUX1_SBAR B 0 0 MbreakND  
+ L=180n  
+ W=240n    
+ PD=960n  
+ PS=960n     
M_FINALDATA_MUX0_MUX1_NOT2_M1         FINALDATA_MUX0_MUX1_SBAR B VDD VDD
+  MbreakPD  
+ L=180n  
+ W=1200n    
+ PD=2880n  
+ PS=2880n     
M_FINALDATA_MUX0_MUX1_NOT3_M2         FINALDATA_N00325
+  FINALDATA_MUX0_MUX1_N00150 0 0 MbreakND  
+ L=180n  
+ W=480n    
+ PD=1440n  
+ PS=1440n     
M_FINALDATA_MUX0_MUX1_NOT3_M1         FINALDATA_N00325
+  FINALDATA_MUX0_MUX1_N00150 VDD VDD MbreakPD  
+ L=180n  
+ W=2400n    
+ PD=5280n  
+ PS=5280n     
M_FINALDATA_MUX0_MUX1_PG1_M2         FINALDATA_MUX0_MUX1_N00150
+  FINALDATA_MUX0_MUX1_SBAR FINALDATA_MUX0_MUX1_N00144 VDD MbreakPD  
+ L=180n  
+ W=240n    
+ PD=960n  
+ PS=960n     
M_FINALDATA_MUX0_MUX1_PG1_M1         FINALDATA_MUX0_MUX1_N00144 B
+  FINALDATA_MUX0_MUX1_N00150 0 MbreakND  
+ L=180n  
+ W=240n    
+ PD=960n  
+ PS=960n     
M_FINALDATA_MUX0_MUX1_PG0_M2         FINALDATA_MUX0_MUX1_N00150 B
+  FINALDATA_MUX0_MUX1_N00147 VDD MbreakPD  
+ L=180n  
+ W=240n    
+ PD=960n  
+ PS=960n     
M_FINALDATA_MUX0_MUX1_PG0_M1         FINALDATA_MUX0_MUX1_N00147
+  FINALDATA_MUX0_MUX1_SBAR FINALDATA_MUX0_MUX1_N00150 0 MbreakND  
+ L=180n  
+ W=240n    
+ PD=960n  
+ PS=960n     
M_FINALDATA_MUX0_MUX2_NOT1_M2         FINALDATA_MUX0_MUX2_N00144 FINALDATA_S3 0
+  0 MbreakND  
+ L=180n  
+ W=240n    
+ PD=960n  
+ PS=960n     
M_FINALDATA_MUX0_MUX2_NOT1_M1         FINALDATA_MUX0_MUX2_N00144 FINALDATA_S3
+  VDD VDD MbreakPD  
+ L=180n  
+ W=1200n    
+ PD=2880n  
+ PS=2880n     
M_FINALDATA_MUX0_MUX2_NOT0_M2         FINALDATA_MUX0_MUX2_N00147 FINALDATA_Q3 0
+  0 MbreakND  
+ L=180n  
+ W=240n    
+ PD=960n  
+ PS=960n     
M_FINALDATA_MUX0_MUX2_NOT0_M1         FINALDATA_MUX0_MUX2_N00147 FINALDATA_Q3
+  VDD VDD MbreakPD  
+ L=180n  
+ W=1200n    
+ PD=2880n  
+ PS=2880n     
M_FINALDATA_MUX0_MUX2_NOT2_M2         FINALDATA_MUX0_MUX2_SBAR B 0 0 MbreakND  
+ L=180n  
+ W=240n    
+ PD=960n  
+ PS=960n     
M_FINALDATA_MUX0_MUX2_NOT2_M1         FINALDATA_MUX0_MUX2_SBAR B VDD VDD
+  MbreakPD  
+ L=180n  
+ W=1200n    
+ PD=2880n  
+ PS=2880n     
M_FINALDATA_MUX0_MUX2_NOT3_M2         FINALDATA_N00337
+  FINALDATA_MUX0_MUX2_N00150 0 0 MbreakND  
+ L=180n  
+ W=480n    
+ PD=1440n  
+ PS=1440n     
M_FINALDATA_MUX0_MUX2_NOT3_M1         FINALDATA_N00337
+  FINALDATA_MUX0_MUX2_N00150 VDD VDD MbreakPD  
+ L=180n  
+ W=2400n    
+ PD=5280n  
+ PS=5280n     
M_FINALDATA_MUX0_MUX2_PG1_M2         FINALDATA_MUX0_MUX2_N00150
+  FINALDATA_MUX0_MUX2_SBAR FINALDATA_MUX0_MUX2_N00144 VDD MbreakPD  
+ L=180n  
+ W=240n    
+ PD=960n  
+ PS=960n     
M_FINALDATA_MUX0_MUX2_PG1_M1         FINALDATA_MUX0_MUX2_N00144 B
+  FINALDATA_MUX0_MUX2_N00150 0 MbreakND  
+ L=180n  
+ W=240n    
+ PD=960n  
+ PS=960n     
M_FINALDATA_MUX0_MUX2_PG0_M2         FINALDATA_MUX0_MUX2_N00150 B
+  FINALDATA_MUX0_MUX2_N00147 VDD MbreakPD  
+ L=180n  
+ W=240n    
+ PD=960n  
+ PS=960n     
M_FINALDATA_MUX0_MUX2_PG0_M1         FINALDATA_MUX0_MUX2_N00147
+  FINALDATA_MUX0_MUX2_SBAR FINALDATA_MUX0_MUX2_N00150 0 MbreakND  
+ L=180n  
+ W=240n    
+ PD=960n  
+ PS=960n     
M_FINALDATA_REGISTER0_DFLIP_NOT1_M2         FINALDATA_REGISTER0_DFLIP_N00048
+  CLK 0 0 MbreakND  
+ L=180n  
+ W=240n    
+ PD=960n  
+ PS=960n     
M_FINALDATA_REGISTER0_DFLIP_NOT1_M1         FINALDATA_REGISTER0_DFLIP_N00048
+  CLK VDD VDD MbreakPD  
+ L=180n  
+ W=1200n    
+ PD=2880n  
+ PS=2880n     
M_FINALDATA_REGISTER0_DFLIP_LATCH_MUX_NOT1_M2        
+  FINALDATA_REGISTER0_DFLIP_LATCH_MUX_N00144 FINALDATA_REGISTER0_DFLIP_N00062 0
+  0 MbreakND  
+ L=180n  
+ W=240n    
+ PD=960n  
+ PS=960n     
M_FINALDATA_REGISTER0_DFLIP_LATCH_MUX_NOT1_M1        
+  FINALDATA_REGISTER0_DFLIP_LATCH_MUX_N00144 FINALDATA_REGISTER0_DFLIP_N00062
+  VDD VDD MbreakPD  
+ L=180n  
+ W=1200n    
+ PD=2880n  
+ PS=2880n     
M_FINALDATA_REGISTER0_DFLIP_LATCH_MUX_NOT0_M2        
+  FINALDATA_REGISTER0_DFLIP_LATCH_MUX_N00147 FINALDATA_N00433 0 0 MbreakND  
+ L=180n  
+ W=240n    
+ PD=960n  
+ PS=960n     
M_FINALDATA_REGISTER0_DFLIP_LATCH_MUX_NOT0_M1        
+  FINALDATA_REGISTER0_DFLIP_LATCH_MUX_N00147 FINALDATA_N00433 VDD VDD MbreakPD  
+ L=180n  
+ W=1200n    
+ PD=2880n  
+ PS=2880n     
M_FINALDATA_REGISTER0_DFLIP_LATCH_MUX_NOT2_M2        
+  FINALDATA_REGISTER0_DFLIP_LATCH_MUX_SBAR CLK 0 0 MbreakND  
+ L=180n  
+ W=240n    
+ PD=960n  
+ PS=960n     
M_FINALDATA_REGISTER0_DFLIP_LATCH_MUX_NOT2_M1        
+  FINALDATA_REGISTER0_DFLIP_LATCH_MUX_SBAR CLK VDD VDD MbreakPD  
+ L=180n  
+ W=1200n    
+ PD=2880n  
+ PS=2880n     
M_FINALDATA_REGISTER0_DFLIP_LATCH_MUX_NOT3_M2        
+  FINALDATA_REGISTER0_DFLIP_N00062 FINALDATA_REGISTER0_DFLIP_LATCH_MUX_N00150 0
+  0 MbreakND  
+ L=180n  
+ W=480n    
+ PD=1440n  
+ PS=1440n     
M_FINALDATA_REGISTER0_DFLIP_LATCH_MUX_NOT3_M1        
+  FINALDATA_REGISTER0_DFLIP_N00062 FINALDATA_REGISTER0_DFLIP_LATCH_MUX_N00150
+  VDD VDD MbreakPD  
+ L=180n  
+ W=2400n    
+ PD=5280n  
+ PS=5280n     
M_FINALDATA_REGISTER0_DFLIP_LATCH_MUX_PG1_M2        
+  FINALDATA_REGISTER0_DFLIP_LATCH_MUX_N00150
+  FINALDATA_REGISTER0_DFLIP_LATCH_MUX_SBAR
+  FINALDATA_REGISTER0_DFLIP_LATCH_MUX_N00144 VDD MbreakPD  
+ L=180n  
+ W=240n    
+ PD=960n  
+ PS=960n     
M_FINALDATA_REGISTER0_DFLIP_LATCH_MUX_PG1_M1        
+  FINALDATA_REGISTER0_DFLIP_LATCH_MUX_N00144 CLK
+  FINALDATA_REGISTER0_DFLIP_LATCH_MUX_N00150 0 MbreakND  
+ L=180n  
+ W=240n    
+ PD=960n  
+ PS=960n     
M_FINALDATA_REGISTER0_DFLIP_LATCH_MUX_PG0_M2        
+  FINALDATA_REGISTER0_DFLIP_LATCH_MUX_N00150 CLK
+  FINALDATA_REGISTER0_DFLIP_LATCH_MUX_N00147 VDD MbreakPD  
+ L=180n  
+ W=240n    
+ PD=960n  
+ PS=960n     
M_FINALDATA_REGISTER0_DFLIP_LATCH_MUX_PG0_M1        
+  FINALDATA_REGISTER0_DFLIP_LATCH_MUX_N00147
+  FINALDATA_REGISTER0_DFLIP_LATCH_MUX_SBAR
+  FINALDATA_REGISTER0_DFLIP_LATCH_MUX_N00150 0 MbreakND  
+ L=180n  
+ W=240n    
+ PD=960n  
+ PS=960n     
M_FINALDATA_REGISTER0_DFLIP_LATCH0_MUX_NOT1_M2        
+  FINALDATA_REGISTER0_DFLIP_LATCH0_MUX_N00144 OUT1 0 0 MbreakND  
+ L=180n  
+ W=240n    
+ PD=960n  
+ PS=960n     
M_FINALDATA_REGISTER0_DFLIP_LATCH0_MUX_NOT1_M1        
+  FINALDATA_REGISTER0_DFLIP_LATCH0_MUX_N00144 OUT1 VDD VDD MbreakPD  
+ L=180n  
+ W=1200n    
+ PD=2880n  
+ PS=2880n     
M_FINALDATA_REGISTER0_DFLIP_LATCH0_MUX_NOT0_M2        
+  FINALDATA_REGISTER0_DFLIP_LATCH0_MUX_N00147 FINALDATA_REGISTER0_DFLIP_N00062 0
+  0 MbreakND  
+ L=180n  
+ W=240n    
+ PD=960n  
+ PS=960n     
M_FINALDATA_REGISTER0_DFLIP_LATCH0_MUX_NOT0_M1        
+  FINALDATA_REGISTER0_DFLIP_LATCH0_MUX_N00147 FINALDATA_REGISTER0_DFLIP_N00062
+  VDD VDD MbreakPD  
+ L=180n  
+ W=1200n    
+ PD=2880n  
+ PS=2880n     
M_FINALDATA_REGISTER0_DFLIP_LATCH0_MUX_NOT2_M2        
+  FINALDATA_REGISTER0_DFLIP_LATCH0_MUX_SBAR FINALDATA_REGISTER0_DFLIP_N00048 0 0
+  MbreakND  
+ L=180n  
+ W=240n    
+ PD=960n  
+ PS=960n     
M_FINALDATA_REGISTER0_DFLIP_LATCH0_MUX_NOT2_M1        
+  FINALDATA_REGISTER0_DFLIP_LATCH0_MUX_SBAR FINALDATA_REGISTER0_DFLIP_N00048 VDD
+  VDD MbreakPD  
+ L=180n  
+ W=1200n    
+ PD=2880n  
+ PS=2880n     
M_FINALDATA_REGISTER0_DFLIP_LATCH0_MUX_NOT3_M2         OUT1
+  FINALDATA_REGISTER0_DFLIP_LATCH0_MUX_N00150 0 0 MbreakND  
+ L=180n  
+ W=480n    
+ PD=1440n  
+ PS=1440n     
M_FINALDATA_REGISTER0_DFLIP_LATCH0_MUX_NOT3_M1         OUT1
+  FINALDATA_REGISTER0_DFLIP_LATCH0_MUX_N00150 VDD VDD MbreakPD  
+ L=180n  
+ W=2400n    
+ PD=5280n  
+ PS=5280n     
M_FINALDATA_REGISTER0_DFLIP_LATCH0_MUX_PG1_M2        
+  FINALDATA_REGISTER0_DFLIP_LATCH0_MUX_N00150
+  FINALDATA_REGISTER0_DFLIP_LATCH0_MUX_SBAR
+  FINALDATA_REGISTER0_DFLIP_LATCH0_MUX_N00144 VDD MbreakPD  
+ L=180n  
+ W=240n    
+ PD=960n  
+ PS=960n     
M_FINALDATA_REGISTER0_DFLIP_LATCH0_MUX_PG1_M1        
+  FINALDATA_REGISTER0_DFLIP_LATCH0_MUX_N00144 FINALDATA_REGISTER0_DFLIP_N00048
+  FINALDATA_REGISTER0_DFLIP_LATCH0_MUX_N00150 0 MbreakND  
+ L=180n  
+ W=240n    
+ PD=960n  
+ PS=960n     
M_FINALDATA_REGISTER0_DFLIP_LATCH0_MUX_PG0_M2        
+  FINALDATA_REGISTER0_DFLIP_LATCH0_MUX_N00150 FINALDATA_REGISTER0_DFLIP_N00048
+  FINALDATA_REGISTER0_DFLIP_LATCH0_MUX_N00147 VDD MbreakPD  
+ L=180n  
+ W=240n    
+ PD=960n  
+ PS=960n     
M_FINALDATA_REGISTER0_DFLIP_LATCH0_MUX_PG0_M1        
+  FINALDATA_REGISTER0_DFLIP_LATCH0_MUX_N00147
[...]
        DSUB     .379041         .52121      
         UTE   -1.79           -1.75         
         AGS     .54479          .440113     
       DVT0W     .196172        1.57344      
       DVT1W  367.500000E+03    2.100000E+06 
       DVT2W    -.080666         .4          
        PRWG     .2              .601376     
        PRWB    -.13401        -2.08777      
         PRT -310            -400            
     PDIBLCB     .171484         .094574     
          WR     .94427         1.031559     
         DWG   -5.320000E-09  -27.302200E-09 
         DWB    7.701900E-09    6.250000E-09 
          B0   48.668600E-09   43.449200E-09 
          B1   14.053400E-09   14.000000E-09 
        LINT   32.406100E-09  -69.384470E-09 
          LL  -19.233680E-12  366.127800E-12 
         LLN     .474442         .35052      
          LW   -5.000000E-21  -10.000000E-15 
         LWL    1.427500E-18   21.088900E-18 
        LMIN  180.000000E-09  180.000000E-09 
        LMAX   50.000000E-06   50.000000E-06 
        WINT   19.980000E-09  -37.410000E-09 
          WL   -5.000000E-21    2.000000E-15 
          WW   -2.120403E-15 -862.120100E-18 
         WWN    1.039531        1.054187     
         WWL -241.500000E-24  720.000000E-24 
        WMIN  240.000000E-09  240.000000E-09 
        WMAX  100.000000E-06  100.000000E-06 
         DLC   32.406100E-09  -69.384470E-09 
         DWC   19.980000E-09  -37.410000E-09 
          CF  153.300000E-12  153.300000E-12 
        NOIA  100.000000E+18    9.900001E+18 
        NOIB   50.000000E+03    2.400000E+03 
        NOIC   -1.400000E-12    1.400000E-12 
         VTM     .025864         .025864     
       PBSWG    1               1            
       MJSWG     .381            .324        
       CJSWG  160.000000E-12  174.000000E-12 
       JTSCD   33.900000E-06   13.000000E-06 
      JSTSCD   32.600000E-12   15.000000E-12 


**** 01/10/18 16:45:18 ********* PSpice 9.0 (Nov 1998) ******** ID# 0 ********

 ** circuit file for profile: latchtest 


 ****     INITIAL TRANSIENT SOLUTION       TEMPERATURE =   27.000 DEG C


******************************************************************************



 NODE   VOLTAGE     NODE   VOLTAGE     NODE   VOLTAGE     NODE   VOLTAGE


(    A)    0.0000  (    B)    0.0000  (    C)    0.0000  (    D)    1.8000      

(    E)    0.0000  (  CLK)    0.0000  (  VDD)    1.8000  ( OUT1)    1.8000      

( OUT2) 26.97E-09  ( OUT3) 26.97E-09  ( OUT4)    1.8000  ( OVER) 26.97E-09      

(FINALDATA_Q0)    1.8000              (FINALDATA_Q1)    1.8000                  

(FINALDATA_Q2)    1.8000              (FINALDATA_Q3)    1.8000                  

(FINALDATA_S0) 26.97E-09              (FINALDATA_S1) 124.3E-09                  

(FINALDATA_S2) 26.97E-09              (FINALDATA_S3)    1.8000                  

(FINALDATA_N00278) 26.97E-09          (FINALDATA_N00288) 26.97E-09              

(FINALDATA_N00293)    1.8000          (FINALDATA_N00298) 26.97E-09              

(FINALDATA_N00301)    1.8000          (FINALDATA_N00313)    1.8000              

(FINALDATA_N00325)    1.8000          (FINALDATA_N00337)    1.8000              

(FINALDATA_N00433)    1.8000          (FINALDATA_N00438)    1.8000              

(FINALDATA_N00443)    1.8000          (FINALDATA_N00448)    1.8000              

(FINALDATA_N00643)    1.8000          (FINALDATA_DFLIP_N00048)    1.8000        

(FINALDATA_DFLIP_N00062)    1.8000    (FINALDATA_MUX0_MUX_SBAR)    1.8000       

(FINALDATA_MUX0_MUX0_SBAR)    1.8000  (FINALDATA_MUX0_MUX1_SBAR)    1.8000      

(FINALDATA_MUX0_MUX2_SBAR)    1.8000  (FINALDATA_RCA4BIT_N00011) 92.05E-09      

(FINALDATA_RCA4BIT_N00014)    1.8000  (FINALDATA_RCA4BIT_N00065)    1.8000      

(FINALDATA_RCA4BIT_N00106)    1.8000  (FINALDATA_RCA4BIT_N00110) 107.9E-09      

(FINALDATA_RCA4BIT_N00254)    1.8000  (FINALDATA_RCA4BIT_N00318) 26.97E-09      

(FINALDATA_RCA4BIT_N00424)    1.8000  (FINALDATA_RCA4BIT_N00654) 26.97E-09      

(FINALDATA_RCA4BIT_N01385) 20.75E-09  (FINALDATA_RCA4BIT_N01475) 20.75E-09      

(FINALDATA_RCA4BIT_N01487)    1.8000  (FINALDATA_RCA4BIT_N01597) 20.75E-09      

(FINALDATA_MUX0_MUX_N00144)    1.8000 (FINALDATA_MUX0_MUX_N00147) 111.4E-09     

(FINALDATA_MUX0_MUX_N00150) 198.1E-09 (FINALDATA_MUX421_MUX_SBAR)    1.8000     

(FINALDATA_MUX0_MUX0_N00144)    1.8000                                          

(FINALDATA_MUX0_MUX0_N00147) 111.4E-09                                          

(FINALDATA_MUX0_MUX0_N00150) 198.1E-09                                          

(FINALDATA_MUX0_MUX1_N00144)    1.8000                                          

(FINALDATA_MUX0_MUX1_N00147) 111.4E-09                                          

(FINALDATA_MUX0_MUX1_N00150) 198.1E-09                                          

(FINALDATA_MUX0_MUX2_N00144) 24.61E-09                                          

(FINALDATA_MUX0_MUX2_N00147) 32.33E-09                                          

(FINALDATA_MUX0_MUX2_N00150) 40.05E-09                                          

(FINALDATA_MUX421_MUX0_SBAR)    1.8000                                          

(FINALDATA_MUX421_MUX1_SBAR)    1.8000                                          

(FINALDATA_MUX421_MUX2_SBAR)    1.8000                                          

(FINALDATA_RCA4BIT_XOR_BBAR) 20.75E-09                                          

(FINALDATA_MUX421_MUX_N00144)    1.8000                                         

(FINALDATA_MUX421_MUX_N00147) 111.4E-09                                         

(FINALDATA_MUX421_MUX_N00150) 198.1E-09                                         

(FINALDATA_RCA4BIT_XOR0_BBAR)    1.8000                                         

(FINALDATA_RCA4BIT_XOR1_BBAR)    1.8000                                         

(FINALDATA_RCA4BIT_XOR2_BBAR) 20.75E-09                                         

(FINALDATA_SHIFTER4BIT_A1BAR)    1.8000                                         

(FINALDATA_SHIFTER4BIT_A2BAR)    1.8000                                         

(FINALDATA_SHIFTER4BIT_A3BAR) 111.4E-09                                         

(FINALDATA_MUX421_MUX0_N00144)    1.8000                                        

(FINALDATA_MUX421_MUX0_N00147) 111.4E-09                                        

(FINALDATA_MUX421_MUX0_N00150) 198.1E-09                                        

(FINALDATA_MUX421_MUX1_N00144) 24.61E-09                                        

(FINALDATA_MUX421_MUX1_N00147) 32.33E-09                                        

(FINALDATA_MUX421_MUX1_N00150) 40.05E-09                                        

(FINALDATA_MUX421_MUX2_N00144)    1.8000                                        

(FINALDATA_MUX421_MUX2_N00147) 111.4E-09                                        

(FINALDATA_MUX421_MUX2_N00150) 198.1E-09                                        

(FINALDATA_RCA4BIT_XOR_N00150) 86.76E-09                                        

(FINALDATA_RCA4BIT_XOR_N00591)    1.8000                                        

(FINALDATA_SHIFTER4BIT_N00032)    1.8000                                        

(FINALDATA_SHIFTER4BIT_SFTBAR)    1.8000                                        

(FINALDATA_RCA4BIT_XOR0_N00150)    1.8000                                       

(FINALDATA_RCA4BIT_XOR0_N00591)    1.8000                                       

(FINALDATA_RCA4BIT_XOR1_N00150)    1.8000                                       

(FINALDATA_RCA4BIT_XOR1_N00591)    1.8000                                       

(FINALDATA_RCA4BIT_XOR2_N00150) 86.76E-09                                       

(FINALDATA_RCA4BIT_XOR2_N00591)    1.8000                                       

(FINALDATA_DFLIP_LATCH_MUX_SBAR)    1.8000                                      

(FINALDATA_DFLIP_LATCH0_MUX_SBAR) 20.75E-09                                     

(FINALDATA_RCA4BIT_FADDER_N00146)    1.7462                                     

(FINALDATA_RCA4BIT_FADDER_N00153) 46.03E-09                                     

(FINALDATA_RCA4BIT_FADDER_N00178)     .3920                                     

(FINALDATA_RCA4BIT_FADDER_N00202) 5.928E-15                                     

(FINALDATA_RCA4BIT_FADDER_N00292)    1.8000                                     

(FINALDATA_RCA4BIT_FADDER_N00344)    1.8000                                     

(FINALDATA_RCA4BIT_FADDER_N00347)    1.8000                                     

(FINALDATA_RCA4BIT_FADDER_N00358) 45.65E-09                                     

(FINALDATA_RCA4BIT_FADDER_N00361) 22.82E-09                                     

(FINALDATA_RCA4BIT_FADDER_N00414) 17.72E-09                                     

(FINALDATA_DFLIP_LATCH_MUX_N00144) 24.61E-09                                    

(FINALDATA_DFLIP_LATCH_MUX_N00147) 32.33E-09                                    

(FINALDATA_DFLIP_LATCH_MUX_N00150) 40.05E-09                                    

(FINALDATA_RCA4BIT_FADDER0_N00146)    1.8000                                    

(FINALDATA_RCA4BIT_FADDER0_N00153) 35.44E-09                                    

(FINALDATA_RCA4BIT_FADDER0_N00178)    1.8000                                    

(FINALDATA_RCA4BIT_FADDER0_N00202) 35.44E-09                                    

(FINALDATA_RCA4BIT_FADDER0_N00292)    1.8000                                    

(FINALDATA_RCA4BIT_FADDER0_N00344)     .4055                                    

(FINALDATA_RCA4BIT_FADDER0_N00347)     .3771                                    

(FINALDATA_RCA4BIT_FADDER0_N00358) 61.51E-09                                    

(FINALDATA_RCA4BIT_FADDER0_N00361) 5.428E-15                                    

(FINALDATA_RCA4BIT_FADDER0_N00414) 62.13E-09                                    

(FINALDATA_RCA4BIT_FADDER1_N00146)    1.8000                                    

(FINALDATA_RCA4BIT_FADDER1_N00153) 107.9E-09                                    

(FINALDATA_RCA4BIT_FADDER1_N00178)    1.8000                                    

(FINALDATA_RCA4BIT_FADDER1_N00202) 53.94E-09                                    

(FINALDATA_RCA4BIT_FADDER1_N00292)    1.8000                                    

(FINALDATA_RCA4BIT_FADDER1_N00344)    1.8000                                    

(FINALDATA_RCA4BIT_FADDER1_N00347)    1.8000                                    

(FINALDATA_RCA4BIT_FADDER1_N00358)    1.5579                                    

(FINALDATA_RCA4BIT_FADDER1_N00361)    1.5374                                    

(FINALDATA_RCA4BIT_FADDER1_N00414) 17.72E-09                                    

(FINALDATA_RCA4BIT_FADDER2_N00146)    1.8000                                    

(FINALDATA_RCA4BIT_FADDER2_N00153)     .0694                                    

(FINALDATA_RCA4BIT_FADDER2_N00178)    1.8000                                    

(FINALDATA_RCA4BIT_FADDER2_N00202)     .0515                                    

(FINALDATA_RCA4BIT_FADDER2_N00292)    1.8000                                    

(FINALDATA_RCA4BIT_FADDER2_N00344)    1.8000                                    

(FINALDATA_RCA4BIT_FADDER2_N00347)    1.8000                                    

(FINALDATA_RCA4BIT_FADDER2_N00358)     .0814                                    

(FINALDATA_RCA4BIT_FADDER2_N00361)     .0160                                    

(FINALDATA_RCA4BIT_FADDER2_N00414)    1.5350                                    

(FINALDATA_REGISTER0_DFLIP_N00048)    1.8000                                    

(FINALDATA_REGISTER0_DFLIP_N00062)    1.8000                                    

(FINALDATA_REGISTER4_DFLIP_N00048)    1.8000                                    

(FINALDATA_REGISTER4_DFLIP_N00062) 26.97E-09                                    

(FINALDATA_DFLIP_LATCH0_MUX_N00144)    1.8000                                   

(FINALDATA_DFLIP_LATCH0_MUX_N00147) 103.6E-09                                   

(FINALDATA_DFLIP_LATCH0_MUX_N00150)    1.8000                                   

(FINALDATA_REGISTER0_DFLIP0_N00048)    1.8000                                   

(FINALDATA_REGISTER0_DFLIP0_N00062)    1.8000                                   

(FINALDATA_REGISTER0_DFLIP1_N00048)    1.8000                                   

(FINALDATA_REGISTER0_DFLIP1_N00062)    1.8000                                   

(FINALDATA_REGISTER0_DFLIP2_N00048)    1.8000                                   

(FINALDATA_REGISTER0_DFLIP2_N00062)    1.8000                                   

(FINALDATA_REGISTER4_DFLIP0_N00048)    1.8000                                   

(FINALDATA_REGISTER4_DFLIP0_N00062)    1.8000                                   

(FINALDATA_REGISTER4_DFLIP1_N00048)    1.8000                                   

(FINALDATA_REGISTER4_DFLIP1_N00062) 26.97E-09                                   

(FINALDATA_REGISTER4_DFLIP2_N00048)    1.8000                                   

(FINALDATA_REGISTER4_DFLIP2_N00062) 26.97E-09                                   

(FINALDATA_SHIFTER4BIT_SHIFTER_N00014) 20.75E-09                                

(FINALDATA_SHIFTER4BIT_SHIFTER_N00074)    1.8000                                

(FINALDATA_SHIFTER4BIT_SHIFTER_N00282)    1.8000                                

(FINALDATA_SHIFTER4BIT_SHIFTER0_N00014) 20.75E-09                               

(FINALDATA_SHIFTER4BIT_SHIFTER0_N00074)    1.8000                               

(FINALDATA_SHIFTER4BIT_SHIFTER0_N00282)    1.8000                               

(FINALDATA_SHIFTER4BIT_SHIFTER1_N00014) 20.75E-09                               

(FINALDATA_SHIFTER4BIT_SHIFTER1_N00074)    1.8000                               

(FINALDATA_SHIFTER4BIT_SHIFTER1_N00282) 198.1E-09                               

(FINALDATA_SHIFTER4BIT_SHIFTER2_N00014) 20.75E-09                               

(FINALDATA_SHIFTER4BIT_SHIFTER2_N00074)    1.8000                               

(FINALDATA_SHIFTER4BIT_SHIFTER2_N00282)    1.8000                               

(FINALDATA_REGISTER0_DFLIP_LATCH_MUX_SBAR)    1.8000                            

(FINALDATA_REGISTER4_DFLIP_LATCH_MUX_SBAR)    1.8000                            

(FINALDATA_REGISTER0_DFLIP0_LATCH_MUX_SBAR)    1.8000                           

(FINALDATA_REGISTER0_DFLIP1_LATCH_MUX_SBAR)    1.8000                           

(FINALDATA_REGISTER0_DFLIP2_LATCH_MUX_SBAR)    1.8000                           

(FINALDATA_REGISTER0_DFLIP_LATCH0_MUX_SBAR) 20.75E-09                           

(FINALDATA_REGISTER4_DFLIP0_LATCH_MUX_SBAR)    1.8000                           

(FINALDATA_REGISTER4_DFLIP1_LATCH_MUX_SBAR)    1.8000                           

(FINALDATA_REGISTER4_DFLIP2_LATCH_MUX_SBAR)    1.8000                           

(FINALDATA_REGISTER4_DFLIP_LATCH0_MUX_SBAR) 20.75E-09                           

(FINALDATA_REGISTER0_DFLIP0_LATCH0_MUX_SBAR) 20.75E-09                          

(FINALDATA_REGISTER0_DFLIP1_LATCH0_MUX_SBAR) 20.75E-09                          

(FINALDATA_REGISTER0_DFLIP2_LATCH0_MUX_SBAR) 20.75E-09                          

(FINALDATA_REGISTER0_DFLIP_LATCH_MUX_N00144) 24.61E-09                          

(FINALDATA_REGISTER0_DFLIP_LATCH_MUX_N00147) 32.33E-09                          

(FINALDATA_REGISTER0_DFLIP_LATCH_MUX_N00150) 40.05E-09                          

(FINALDATA_REGISTER4_DFLIP0_LATCH0_MUX_SBAR) 20.75E-09                          

(FINALDATA_REGISTER4_DFLIP1_LATCH0_MUX_SBAR) 20.75E-09                          

(FINALDATA_REGISTER4_DFLIP2_LATCH0_MUX_SBAR) 20.75E-09                          

(FINALDATA_REGISTER4_DFLIP_LATCH_MUX_N00144)    1.8000                          

(FINALDATA_REGISTER4_DFLIP_LATCH_MUX_N00147)    1.8000                          

(FINALDATA_REGISTER4_DFLIP_LATCH_MUX_N00150)    1.8000                          

(FINALDATA_REGISTER0_DFLIP0_LATCH_MUX_N00144) 24.61E-09                         

(FINALDATA_REGISTER0_DFLIP0_LATCH_MUX_N00147) 32.33E-09                         

(FINALDATA_REGISTER0_DFLIP0_LATCH_MUX_N00150) 40.05E-09                         

(FINALDATA_REGISTER0_DFLIP1_LATCH_MUX_N00144) 24.61E-09                         

(FINALDATA_REGISTER0_DFLIP1_LATCH_MUX_N00147) 32.33E-09                         

(FINALDATA_REGISTER0_DFLIP1_LATCH_MUX_N00150) 40.05E-09                         

(FINALDATA_REGISTER0_DFLIP2_LATCH_MUX_N00144) 24.61E-09                         

(FINALDATA_REGISTER0_DFLIP2_LATCH_MUX_N00147) 32.33E-09                         

(FINALDATA_REGISTER0_DFLIP2_LATCH_MUX_N00150) 40.05E-09                         

(FINALDATA_REGISTER0_DFLIP_LATCH0_MUX_N00144) 32.33E-09                         

(FINALDATA_REGISTER0_DFLIP_LATCH0_MUX_N00147) 24.61E-09                         

(FINALDATA_REGISTER0_DFLIP_LATCH0_MUX_N00150) 40.05E-09                         

(FINALDATA_REGISTER4_DFLIP0_LATCH_MUX_N00144) 24.61E-09                         

(FINALDATA_REGISTER4_DFLIP0_LATCH_MUX_N00147) 32.33E-09                         

(FINALDATA_REGISTER4_DFLIP0_LATCH_MUX_N00150) 40.05E-09                         

(FINALDATA_REGISTER4_DFLIP1_LATCH_MUX_N00144)    1.8000                         

(FINALDATA_REGISTER4_DFLIP1_LATCH_MUX_N00147)    1.8000                         

(FINALDATA_REGISTER4_DFLIP1_LATCH_MUX_N00150)    1.8000                         

(FINALDATA_REGISTER4_DFLIP2_LATCH_MUX_N00144)    1.8000                         

(FINALDATA_REGISTER4_DFLIP2_LATCH_MUX_N00147)    1.8000                         

(FINALDATA_REGISTER4_DFLIP2_LATCH_MUX_N00150)    1.8000                         

(FINALDATA_REGISTER4_DFLIP_LATCH0_MUX_N00144) 111.4E-09                         

(FINALDATA_REGISTER4_DFLIP_LATCH0_MUX_N00147)    1.8000                         

(FINALDATA_REGISTER4_DFLIP_LATCH0_MUX_N00150) 198.1E-09                         

(FINALDATA_REGISTER0_DFLIP0_LATCH0_MUX_N00144)    1.8000                        

(FINALDATA_REGISTER0_DFLIP0_LATCH0_MUX_N00147) 103.6E-09                        

(FINALDATA_REGISTER0_DFLIP0_LATCH0_MUX_N00150)    1.8000                        

(FINALDATA_REGISTER0_DFLIP1_LATCH0_MUX_N00144)    1.8000                        

(FINALDATA_REGISTER0_DFLIP1_LATCH0_MUX_N00147) 103.6E-09                        

(FINALDATA_REGISTER0_DFLIP1_LATCH0_MUX_N00150)    1.8000                        

(FINALDATA_REGISTER0_DFLIP2_LATCH0_MUX_N00144) 32.33E-09                        

(FINALDATA_REGISTER0_DFLIP2_LATCH0_MUX_N00147) 24.61E-09                        

(FINALDATA_REGISTER0_DFLIP2_LATCH0_MUX_N00150) 40.05E-09                        

(FINALDATA_REGISTER4_DFLIP0_LATCH0_MUX_N00144) 32.33E-09                        

(FINALDATA_REGISTER4_DFLIP0_LATCH0_MUX_N00147) 24.61E-09                        

(FINALDATA_REGISTER4_DFLIP0_LATCH0_MUX_N00150) 40.05E-09                        

(FINALDATA_REGISTER4_DFLIP1_LATCH0_MUX_N00144) 111.4E-09                        

(FINALDATA_REGISTER4_DFLIP1_LATCH0_MUX_N00147)    1.8000                        

(FINALDATA_REGISTER4_DFLIP1_LATCH0_MUX_N00150) 198.1E-09                        

(FINALDATA_REGISTER4_DFLIP2_LATCH0_MUX_N00144) 111.4E-09                        

(FINALDATA_REGISTER4_DFLIP2_LATCH0_MUX_N00147)    1.8000                        

(FINALDATA_REGISTER4_DFLIP2_LATCH0_MUX_N00150) 198.1E-09 




    VOLTAGE SOURCE CURRENTS
    NAME         CURRENT

    V_V1        -4.925E-09
    V_V2         0.000E+00
    V_V3         0.000E+00
    V_V5         0.000E+00
    V_V6         1.618E-10
    V_V7         0.000E+00
    V_V8         0.000E+00

    TOTAL POWER DISSIPATION   8.87E-09  WATTS



          JOB CONCLUDED

          TOTAL JOB TIME           26.69
