
**** 10/30/17 14:34:29 ********* PSpice 9.0 (Nov 1998) ******** ID# 0 ********

 ** circuit file for profile: Time 


 ****     CIRCUIT DESCRIPTION


******************************************************************************




** WARNING: DO NOT EDIT OR DELETE THIS FILE

*Libraries: 
* Local Libraries :
.LIB "C:\Documents and Settings\vlsi5\OrCAD\PSPICE-LIB\UMC_018-TT.lib" 
* From [PSPICE NETLIST] section of pspice.ini file:

*Analysis directives: 
.TRAN  0 4ns 0 10p 
.PROBE 

*Netlist File: 
.INC "not-TEST.net" 


*Alias File: 

**** INCLUDING not-TEST.net ****
* source NOT
V_V1         N00044 0 1.8V
V_V2         A 0  
+PULSE 0 1.8 0 100p 100p 400p 1n
V_V3         B 0  
+PULSE 0 1.8 0 100p 100p 900p 2n
M_NOR1_M4         NOR1_N00673 A N00044 N00044 MbreakPD  
+ L=180n  
+ W=2400n    
+ PD=5280n  
+ PS=5280n     
M_NOR1_M2         ZNOR B 0 0 MbreakND  
+ L=180n  
+ W=240n    
+ PD=960n  
+ PS=960n     
M_NOR1_M1         ZNOR A 0 0 MbreakND  
+ L=180n  
+ W=240n    
+ PD=960n  
+ PS=960n     
M_NOR1_M3         ZNOR B NOR1_N00673 N00044 MbreakPD  
+ L=180n  
+ W=2400n    
+ PD=5280n  
+ PS=5280n     
M_NAND1_M3         ZNAND A N00044 N00044 MbreakPD  
+ L=180n  
+ W=1200n    
+ PD=2880n  
+ PS=2880n     
M_NAND1_M4         ZNAND B N00044 N00044 MbreakPD  
+ L=180n  
+ W=1200n    
+ PD=2880n  
+ PS=2880n     
M_NAND1_M2         NAND1_N00011 A 0 0 MbreakND  
+ L=180n  
+ W=480n    
+ PD=1440n  
+ PS=1440n     
M_NAND1_M1         ZNAND B NAND1_N00011 0 MbreakND  
+ L=180n  
+ W=480n    
+ PD=1440n  
+ PS=1440n     
M_NOT1_M1         ZNOT ZNAND N00044 N00044 MbreakPD  
+ L=180n  
+ W=1200n    
+ PD=2880n  
+ PS=2880n     
M_NOT1_M2         ZNOT ZNAND 0 0 MbreakND  
+ L=180n  
+ W=240n    
+ PD=960n  
+ PS=960n     

**** RESUMING not-test-time.sim.cir ****
.INC "not-TEST.als"



**** INCLUDING not-TEST.als ****
.ALIASES
V_V1            V1(+=N00044 -=0 )
V_V2            V2(+=A -=0 )
V_V3            V3(+=B -=0 )
_   NOR1(VDD=N00044 GND=0 Z=ZNOR B=B A=A )
M_NOR1_M4          NOR1.M4(d=NOR1_N00673 g=A s=N00044 b=N00044 )
M_NOR1_M2          NOR1.M2(d=ZNOR g=B s=0 b=0 )
M_NOR1_M1          NOR1.M1(d=ZNOR g=A s=0 b=0 )
M_NOR1_M3          NOR1.M3(d=ZNOR g=B s=NOR1_N00673 b=N00044 )
_    _(NOR1.GND=0)
_    _(GND=0)
_    _(NOR1.A=A)
_    _(NOR1.VDD=N00044)
_    _(NOR1.Z=ZNOR)
_    _(NOR1.B=B)
_   NAND1(VDD=N00044 GND=0 Z=ZNAND A=A B=B )
M_NAND1_M3          NAND1.M3(d=ZNAND g=A s=N00044 b=N00044 )
M_NAND1_M4          NAND1.M4(d=ZNAND g=B s=N00044 b=N00044 )
M_NAND1_M2          NAND1.M2(d=NAND1_N00011 g=A s=0 b=0 )
M_NAND1_M1          NAND1.M1(d=ZNAND g=B s=NAND1_N00011 b=0 )
_    _(NAND1.GND=0)
_    _(GND=0)
_    _(NAND1.B=B)
_    _(NAND1.Z=ZNAND)
_    _(NAND1.A=A)
_    _(NAND1.VDD=N00044)
_   NOT1(GND=0 VDD=N00044 A=ZNAND Z=ZNOT )
M_NOT1_M1          NOT1.M1(d=ZNOT g=ZNAND s=N00044 b=N00044 )
M_NOT1_M2          NOT1.M2(d=ZNOT g=ZNAND s=0 b=0 )
_    _(NOT1.VDD=N00044)
_    _(NOT1.GND=0)
_    _(GND=0)
_    _(NOT1.A=ZNAND)
_    _(NOT1.VIN=ZNAND)
_    _(NOT1.Z=ZNOT)
_    _(NOT1.VOUT=ZNOT)
_    _(B=B)
_    _(A=A)
_    _(ZNOR=ZNOR)
_    _(ZNAND=ZNAND)
_    _(ZNOT=ZNOT)
.ENDALIASES

**** RESUMING not-test-time.sim.cir ****
.END

WARNING -- Parameter HDIF in model MbreakPD is invalid - Ignored
WARNING -- Parameter CTA in model MbreakPD is invalid - Ignored
WARNING -- Parameter CTP in model MbreakPD is invalid - Ignored
WARNING -- Parameter PTA in model MbreakPD is invalid - Ignored
WARNING -- Parameter PTP in model MbreakPD is invalid - Ignored
WARNING -- Parameter TLEVC in model MbreakPD is invalid - Ignored
WARNING -- Parameter HDIF in model MbreakND is invalid - Ignored
WARNING -- Parameter CTA in model MbreakND is invalid - Ignored
WARNING -- Parameter CTP in model MbreakND is invalid - Ignored
WARNING -- Parameter PTA in model MbreakND is invalid - Ignored
WARNING -- Parameter PTP in model MbreakND is invalid - Ignored
WARNING -- Parameter TLEVC in model MbreakND is invalid - Ignored
**** 10/30/17 14:34:29 ********* PSpice 9.0 (Nov 1998) ******** ID# 0 ********

 ** circuit file for profile: Time 


 ****     MOSFET MODEL PARAMETERS


******************************************************************************




               MbreakPD        MbreakND        
               PMOS            NMOS            
  T_Measured   27              27            
   T_Current   27              27            
       LEVEL    7               7            
           L  100.000000E-06  100.000000E-06 
           W  100.000000E-06  100.000000E-06 
         VTO    -.468253         .315559     
          KP  493.306300E-06  493.306300E-06 
       GAMMA    0               0            
      LAMBDA    0               0            
         RSH    8               8            
          IS    1.000000E-15    1.000000E-15 
          JS   13.000000E-06   33.900000E-06 
        JSSW   15.000000E-12   32.600000E-12 
          PB     .762            .79         
        PBSW    1               1            
          CJ    1.140000E-03    1.190000E-03 
        CJSW  174.000000E-12  160.000000E-12 
          MJ     .395            .515        
        MJSW     .324            .381        
        CGSO  158.000000E-12  121.000000E-12 
        CGDO  158.000000E-12  121.000000E-12 
        CGBO    0               0            
         TOX    4.200000E-09    4.200000E-09 
          XJ  180.000000E-09  160.000000E-09 
       UCRIT   10.000000E+03   10.000000E+03 
       DELTA     .015           1.000000E-03 
      DIOMOD    2               2            
          K1     .475224         .418147     
          K2     .03784         -.025055     
        LETA    0               0            
        WETA    0               0            
          U0    7.146010E-03     .032614     
       XPART    1               1            
        VTH0    -.468253         .315559     
          K3    1.82852         -.86508      
          W0    2.462436E-09   10.000000E-21 
         NLX   41.141920E-09  272.415500E-09 
        DVT0    3.749691        1.1079       
        DVT1    1.1007           .481697     
          UA -869.596000E-12   -1.168402E-09 
          UB    2.096885E-18    2.570923E-18 
          UC  -30.418200E-12   83.571000E-12 
        VSAT  188.767800E+03  101.374000E+03 
        RDSW  140.069          72.95411      
        VOFF    -.109287        -.094204     
     NFACTOR    1.76253         1.18932      
        CDSC    1.646561E-03    2.478640E-03 
        PCLM    1.139005        8.5993       
      PDIBL1    1.590000E-03    5.383091E-03 
      PDIBL2  173.811400E-06  208.402200E-06 
       DROUT                     .84         
      PSCBE1  456.047300E+06  630.000000E+06 
      PSCBE2  908.455500E-06   10.000000E-21 
          A0    1.739           1.962734     
          A1    0               0            
          A2     .4              .99         
       NPEAK  421.980000E+15  356.040000E+15 
         LDD    0               0            
        LITL   47.623520E-09   44.899890E-09 
         KT1    -.38            -.298        
         KT2    -.052           -.052        
         UA1 -210.000000E-12    1.830000E-09 
         UB1   -1.010000E-18   -2.610000E-18 
         UC1   86.000000E-12  120.000000E-12 
          AT    1.000000E+03   52.000000E+03 
        PVAG    1.753389        4.070936     
        KETA   -1.110090E-03   -1.100900E-03 
        ETA0     .111642         .071669     
        ETAB    -.04887        -1.798100E-03 
        KT1L   -8.000000E-09   -5.000000E-09 
         K3B    2.56099         1.155        
        DVT2   -1.120000E-03    -.0401       
       CDSCB  414.421000E-06  120.059000E-06 
         CIT  -79.328180E-06 -258.541000E-06 
        DSUB     .52121          .379041     
         UTE   -1.75           -1.79         
         AGS     .440113         .54479      
       DVT0W    1.57344          .196172     
       DVT1W    2.100000E+06  367.500000E+03 
       DVT2W     .4             -.080666     
        PRWG     .601376         .2          
        PRWB   -2.08777         -.13401      
         PRT -400            -310            
     PDIBLCB     .094574         .171484     
          WR    1.031559         .94427      
         DWG  -27.302200E-09   -5.320000E-09 
         DWB    6.250000E-09    7.701900E-09 
          B0   43.449200E-09   48.668600E-09 
          B1   14.000000E-09   14.053400E-09 
        LINT  -69.384470E-09   32.406100E-09 
          LL  366.127800E-12  -19.233680E-12 
         LLN     .35052          .474442     
          LW  -10.000000E-15   -5.000000E-21 
         LWL   21.088900E-18    1.427500E-18 
        LMIN  180.000000E-09  180.000000E-09 
        LMAX   50.000000E-06   50.000000E-06 
        WINT  -37.410000E-09   19.980000E-09 
          WL    2.000000E-15   -5.000000E-21 
          WW -862.120100E-18   -2.120403E-15 
         WWN    1.054187        1.039531     
         WWL  720.000000E-24 -241.500000E-24 
        WMIN  240.000000E-09  240.000000E-09 
        WMAX  100.000000E-06  100.000000E-06 
         DLC  -69.384470E-09   32.406100E-09 
         DWC  -37.410000E-09   19.980000E-09 
          CF  153.300000E-12  153.300000E-12 
        NOIA    9.900001E+18  100.000000E+18 
        NOIB    2.400000E+03   50.000000E+03 
        NOIC    1.400000E-12   -1.400000E-12 
         VTM     .025864         .025864     
       PBSWG    1               1            
       MJSWG     .324            .381        
       CJSWG  174.000000E-12  160.000000E-12 
       JTSCD   13.000000E-06   33.900000E-06 
      JSTSCD   15.000000E-12   32.600000E-12 


**** 10/30/17 14:34:29 ********* PSpice 9.0 (Nov 1998) ******** ID# 0 ********

 ** circuit file for profile: Time 


 ****     INITIAL TRANSIENT SOLUTION       TEMPERATURE =   27.000 DEG C


******************************************************************************



 NODE   VOLTAGE     NODE   VOLTAGE     NODE   VOLTAGE     NODE   VOLTAGE


(    A)    0.0000  (    B)    0.0000  ( ZNOR)    1.8000  ( ZNOT) 20.75E-09      

(ZNAND)    1.8000  (N00044)    1.8000 (NOR1_N00673)    1.8000                   

(NAND1_N00011)     .0694              




    VOLTAGE SOURCE CURRENTS
    NAME         CURRENT

    V_V1        -8.893E-11
    V_V2         0.000E+00
    V_V3         0.000E+00

    TOTAL POWER DISSIPATION   1.60E-10  WATTS



          JOB CONCLUDED

          TOTAL JOB TIME             .27
